*SPEF "IEEE 1481-1998"
*DESIGN "iir_filter"
*DATE "Thu Nov 18 01:29:02 2021"
*VENDOR "Cadence Design Systems, Inc."
*PROGRAM "Innovus"
*VERSION "17.11-s080_1"
*DESIGN_FLOW "COUPLING C" "PIN_CAP NONE" "NAME_SCOPE LOCAL"
*DIVIDER /
*DELIMITER :
*BUS_DELIMITER []
*T_UNIT 1 NS
*C_UNIT 1 PF
*R_UNIT 1 OHM
*L_UNIT 1 HENRY

// MMMC spef file for corner 'my_rc'

*NAME_MAP

*1 clock
*2 rst_n
*3 din[8]
*4 din[7]
*5 din[6]
*6 din[5]
*7 din[4]
*8 din[3]
*9 din[2]
*10 din[1]
*11 din[0]
*12 a1[8]
*13 a1[7]
*14 a1[6]
*15 a1[5]
*16 a1[4]
*17 a1[3]
*18 a1[2]
*19 a1[1]
*20 a1[0]
*21 c2[8]
*22 c2[7]
*23 c2[6]
*24 c2[5]
*25 c2[4]
*26 c2[3]
*27 c2[2]
*28 c2[1]
*29 c2[0]
*30 c3[8]
*31 c3[7]
*32 c3[6]
*33 c3[5]
*34 c3[4]
*35 c3[3]
*36 c3[2]
*37 c3[1]
*38 c3[0]
*39 b0[8]
*40 b0[7]
*41 b0[6]
*42 b0[5]
*43 b0[4]
*44 b0[3]
*45 b0[2]
*46 b0[1]
*47 b0[0]
*48 b1[8]
*49 b1[7]
*50 b1[6]
*51 b1[5]
*52 b1[4]
*53 b1[3]
*54 b1[2]
*55 b1[1]
*56 b1[0]
*57 b2[8]
*58 b2[7]
*59 b2[6]
*60 b2[5]
*61 b2[4]
*62 b2[3]
*63 b2[2]
*64 b2[1]
*65 b2[0]
*66 vin
*67 dout[8]
*68 dout[7]
*69 dout[6]
*70 dout[5]
*71 dout[4]
*72 dout[3]
*73 dout[2]
*74 dout[1]
*75 vout
*76 FE_OFN5_vin
*77 FE_OFN4_vin
*78 FE_OFN3_vin
*79 FE_OFN2_rst_n
*80 FE_OFN1_rst_n
*81 FE_OFN0_q_reg4_1
*82 FE_DBTN3_q_reg4_0
*83 FE_DBTN2_q_reg4_3
*84 FE_DBTN1_q_reg4_5
*85 FE_DBTN0_q_reg4_7
*86 vout_ff1
*87 vout_ff2
*88 vout_ff3
*89 N9
*90 N8
*91 N15
*92 N14
*93 N13
*94 N12
*95 N11
*96 N10
*97 N7
*98 N6
*99 N5
*100 N4
*101 N3
*102 N2
*103 N1
*104 N0
*105 reg_1_n24
*106 reg_1_n23
*107 reg_1_n22
*108 reg_1_n21
*109 reg_1_n20
*110 reg_1_n19
*111 reg_1_n18
*112 reg_1_n17
*113 reg_1_n16
*114 reg_1_n15
*115 reg_1_n14
*116 reg_1_n13
*117 reg_1_n12
*118 reg_1_n11
*119 reg_1_n10
*120 reg_1_n9
*121 reg_1_n8
*122 reg_1_n7
*123 reg_1_n6
*124 reg_1_n5
*125 reg_1_n4
*126 reg_1_n3
*127 reg_1_n2
*128 reg_1_n1
*129 reg_2_n50
*130 reg_2_n49
*131 reg_2_n48
*132 reg_2_n47
*133 reg_2_n46
*134 reg_2_n45
*135 reg_2_n44
*136 reg_2_n43
*137 reg_2_n42
*138 reg_2_n41
*139 reg_2_n40
*140 reg_2_n39
*141 reg_2_n38
*142 reg_2_n37
*143 reg_2_n36
*144 reg_2_n35
*145 reg_2_n34
*146 reg_2_n33
*147 reg_2_n32
*148 reg_2_n31
*149 reg_2_n30
*150 reg_2_n29
*151 reg_2_n28
*152 reg_2_n27
*153 reg_3_n50
*154 reg_3_n49
*155 reg_3_n48
*156 reg_3_n47
*157 reg_3_n46
*158 reg_3_n45
*159 reg_3_n44
*160 reg_3_n43
*161 reg_3_n42
*162 reg_3_n41
*163 reg_3_n40
*164 reg_3_n39
*165 reg_3_n38
*166 reg_3_n37
*167 reg_3_n36
*168 reg_3_n35
*169 reg_3_n34
*170 reg_3_n33
*171 reg_3_n32
*172 reg_3_n31
*173 reg_3_n30
*174 reg_3_n29
*175 reg_3_n28
*176 reg_3_n27
*177 reg_4_n50
*178 reg_4_n49
*179 reg_4_n48
*180 reg_4_n47
*181 reg_4_n46
*182 reg_4_n45
*183 reg_4_n44
*184 reg_4_n43
*185 reg_4_n42
*186 reg_4_n41
*187 reg_4_n40
*188 reg_4_n39
*189 reg_4_n38
*190 reg_4_n37
*191 reg_4_n36
*192 reg_4_n35
*193 reg_4_n34
*194 reg_4_n33
*195 reg_4_n32
*196 reg_4_n31
*197 reg_4_n30
*198 reg_4_n29
*199 reg_4_n28
*200 reg_4_n27
*201 reg_5_n50
*202 reg_5_n49
*203 reg_5_n48
*204 reg_5_n47
*205 reg_5_n46
*206 reg_5_n45
*207 reg_5_n44
*208 reg_5_n43
*209 reg_5_n42
*210 reg_5_n41
*211 reg_5_n40
*212 reg_5_n39
*213 reg_5_n38
*214 reg_5_n37
*215 reg_5_n36
*216 reg_5_n35
*217 reg_5_n34
*218 reg_5_n33
*219 reg_5_n32
*220 reg_5_n31
*221 reg_5_n30
*222 reg_5_n29
*223 reg_5_n28
*224 reg_5_n27
*225 reg_6_n50
*226 reg_6_n49
*227 reg_6_n48
*228 reg_6_n47
*229 reg_6_n46
*230 reg_6_n45
*231 reg_6_n44
*232 reg_6_n43
*233 reg_6_n42
*234 reg_6_n41
*235 reg_6_n40
*236 reg_6_n39
*237 reg_6_n38
*238 reg_6_n37
*239 reg_6_n36
*240 reg_6_n35
*241 reg_6_n34
*242 reg_6_n33
*243 reg_6_n32
*244 reg_6_n31
*245 reg_6_n30
*246 reg_6_n29
*247 reg_6_n28
*248 reg_6_n27
*249 reg_7_n50
*250 reg_7_n49
*251 reg_7_n48
*252 reg_7_n47
*253 reg_7_n46
*254 reg_7_n45
*255 reg_7_n44
*256 reg_7_n43
*257 reg_7_n42
*258 reg_7_n41
*259 reg_7_n40
*260 reg_7_n39
*261 reg_7_n38
*262 reg_7_n37
*263 reg_7_n36
*264 reg_7_n35
*265 reg_7_n34
*266 reg_7_n33
*267 reg_7_n32
*268 reg_7_n31
*269 reg_7_n30
*270 reg_7_n29
*271 reg_7_n28
*272 reg_7_n27
*273 reg_8_n50
*274 reg_8_n49
*275 reg_8_n48
*276 reg_8_n47
*277 reg_8_n46
*278 reg_8_n45
*279 reg_8_n44
*280 reg_8_n43
*281 reg_8_n42
*282 reg_8_n41
*283 reg_8_n40
*284 reg_8_n39
*285 reg_8_n38
*286 reg_8_n37
*287 reg_8_n36
*288 reg_8_n35
*289 reg_8_n34
*290 reg_8_n33
*291 reg_8_n32
*292 reg_8_n31
*293 reg_8_n30
*294 reg_8_n29
*295 reg_8_n28
*296 reg_8_n27
*297 reg_9_n50
*298 reg_9_n49
*299 reg_9_n48
*300 reg_9_n47
*301 reg_9_n46
*302 reg_9_n45
*303 reg_9_n44
*304 reg_9_n43
*305 reg_9_n42
*306 reg_9_n41
*307 reg_9_n40
*308 reg_9_n39
*309 reg_9_n38
*310 reg_9_n37
*311 reg_9_n36
*312 reg_9_n35
*313 reg_9_n34
*314 reg_9_n33
*315 reg_9_n32
*316 reg_9_n31
*317 reg_9_n30
*318 reg_9_n29
*319 reg_9_n28
*320 reg_9_n27
*321 reg_10_n50
*322 reg_10_n49
*323 reg_10_n48
*324 reg_10_n47
*325 reg_10_n46
*326 reg_10_n45
*327 reg_10_n44
*328 reg_10_n43
*329 reg_10_n42
*330 reg_10_n41
*331 reg_10_n40
*332 reg_10_n39
*333 reg_10_n38
*334 reg_10_n37
*335 reg_10_n36
*336 reg_10_n35
*337 reg_10_n34
*338 reg_10_n33
*339 reg_10_n32
*340 reg_10_n31
*341 reg_10_n30
*342 reg_10_n29
*343 reg_10_n28
*344 reg_10_n27
*345 reg_11_n50
*346 reg_11_n49
*347 reg_11_n48
*348 reg_11_n47
*349 reg_11_n46
*350 reg_11_n45
*351 reg_11_n44
*352 reg_11_n43
*353 reg_11_n42
*354 reg_11_n41
*355 reg_11_n40
*356 reg_11_n39
*357 reg_11_n38
*358 reg_11_n37
*359 reg_11_n36
*360 reg_11_n35
*361 reg_11_n34
*362 reg_11_n33
*363 reg_11_n32
*364 reg_11_n31
*365 reg_11_n30
*366 reg_11_n29
*367 reg_11_n28
*368 reg_11_n27
*369 reg_12_n50
*370 reg_12_n49
*371 reg_12_n48
*372 reg_12_n47
*373 reg_12_n46
*374 reg_12_n45
*375 reg_12_n44
*376 reg_12_n43
*377 reg_12_n42
*378 reg_12_n41
*379 reg_12_n40
*380 reg_12_n39
*381 reg_12_n38
*382 reg_12_n37
*383 reg_12_n36
*384 reg_12_n35
*385 reg_12_n34
*386 reg_12_n33
*387 reg_12_n32
*388 reg_12_n31
*389 reg_12_n30
*390 reg_12_n29
*391 reg_12_n28
*392 reg_12_n27
*393 reg_13_n50
*394 reg_13_n49
*395 reg_13_n48
*396 reg_13_n47
*397 reg_13_n46
*398 reg_13_n45
*399 reg_13_n44
*400 reg_13_n43
*401 reg_13_n42
*402 reg_13_n41
*403 reg_13_n40
*404 reg_13_n39
*405 reg_13_n38
*406 reg_13_n37
*407 reg_13_n36
*408 reg_13_n35
*409 reg_13_n34
*410 reg_13_n33
*411 reg_13_n32
*412 reg_13_n31
*413 reg_13_n30
*414 reg_13_n29
*415 reg_13_n28
*416 reg_13_n27
*417 ff_1_n3
*418 ff_1_n2
*419 ff_1_n1
*420 ff_2_n5
*421 ff_3_n5
*422 ff_4_n5
*423 reg_dout_n50
*424 reg_dout_n49
*425 reg_dout_n48
*426 reg_dout_n47
*427 reg_dout_n46
*428 reg_dout_n45
*429 reg_dout_n44
*430 reg_dout_n43
*431 reg_dout_n42
*432 reg_dout_n41
*433 reg_dout_n40
*434 reg_dout_n39
*435 reg_dout_n38
*436 reg_dout_n37
*437 reg_dout_n36
*438 reg_dout_n35
*439 reg_dout_n34
*440 reg_dout_n33
*441 reg_dout_n32
*442 reg_dout_n31
*443 reg_dout_n30
*444 reg_dout_n29
*445 reg_dout_n28
*446 reg_dout_n27
*447 add_52_n2
*448 add_1_root_add_0_root_add_58_2_n1
*449 add_0_root_add_0_root_add_58_2_n2
*450 mult_57_n252
*451 mult_57_n251
*452 mult_57_n250
*453 mult_57_n249
*454 mult_57_n248
*455 mult_57_n247
*456 mult_57_n246
*457 mult_57_n245
*458 mult_57_n244
*459 mult_57_n243
*460 mult_57_n242
*461 mult_57_n241
*462 mult_57_n240
*463 mult_57_n239
*464 mult_57_n238
*465 mult_57_n237
*466 mult_57_n236
*467 mult_57_n235
*468 mult_57_n234
*469 mult_57_n233
*470 mult_57_n232
*471 mult_57_n231
*472 mult_57_n230
*473 mult_57_n229
*474 mult_57_n228
*475 mult_57_n227
*476 mult_57_n226
*477 mult_57_n225
*478 mult_57_n224
*479 mult_57_n223
*480 mult_57_n222
*481 mult_57_n221
*482 mult_57_n220
*483 mult_57_n219
*484 mult_57_n218
*485 mult_57_n217
*486 mult_57_n216
*487 mult_57_n215
*488 mult_57_n214
*489 mult_57_n213
*490 mult_57_n212
*491 mult_57_n211
*492 mult_57_n210
*493 mult_57_n209
*494 mult_57_n208
*495 mult_57_n207
*496 mult_57_n206
*497 mult_57_n205
*498 mult_57_n204
*499 mult_57_n203
*500 mult_57_n202
*501 mult_57_n201
*502 mult_57_n200
*503 mult_57_n199
*504 mult_57_n198
*505 mult_57_n197
*506 mult_57_n196
*507 mult_57_n195
*508 mult_57_n194
*509 mult_57_n193
*510 mult_57_n192
*511 mult_57_n191
*512 mult_57_n190
*513 mult_57_n189
*514 mult_57_n188
*515 mult_57_n187
*516 mult_57_n186
*517 mult_57_n185
*518 mult_57_n184
*519 mult_57_n183
*520 mult_57_n182
*521 mult_57_n181
*522 mult_57_n90
*523 mult_57_n89
*524 mult_57_n88
*525 mult_57_n87
*526 mult_57_n84
*527 mult_57_n83
*528 mult_57_n82
*529 mult_57_n81
*530 mult_57_n80
*531 mult_57_n79
*532 mult_57_n78
*533 mult_57_n77
*534 mult_57_n76
*535 mult_57_n75
*536 mult_57_n74
*537 mult_57_n73
*538 mult_57_n71
*539 mult_57_n69
*540 mult_57_n68
*541 mult_57_n67
*542 mult_57_n66
*543 mult_57_n62
*544 mult_57_n49
*545 mult_57_n48
*546 mult_57_n47
*547 mult_57_n46
*548 mult_57_n45
*549 mult_57_n44
*550 mult_57_n43
*551 mult_57_n42
*552 mult_57_n41
*553 mult_57_n40
*554 mult_57_n39
*555 mult_57_n38
*556 mult_57_n37
*557 mult_57_n36
*558 mult_57_n35
*559 mult_57_n34
*560 mult_57_n33
*561 mult_57_n32
*562 mult_57_n30
*563 mult_57_n29
*564 mult_57_n28
*565 mult_57_n27
*566 mult_57_n26
*567 mult_57_n25
*568 mult_57_n24
*569 mult_57_n23
*570 mult_57_n22
*571 mult_57_n20
*572 mult_57_n19
*573 mult_57_n18
*574 mult_57_n17
*575 mult_57_n16
*576 mult_57_n15
*577 mult_57_n9
*578 mult_57_n8
*579 mult_57_n7
*580 mult_57_n6
*581 mult_57_n5
*582 mult_57_n4
*583 mult_57_n3
*584 mult_57_n2
*585 mult_56_n252
*586 mult_56_n251
*587 mult_56_n250
*588 mult_56_n249
*589 mult_56_n248
*590 mult_56_n247
*591 mult_56_n246
*592 mult_56_n245
*593 mult_56_n244
*594 mult_56_n243
*595 mult_56_n242
*596 mult_56_n241
*597 mult_56_n240
*598 mult_56_n239
*599 mult_56_n238
*600 mult_56_n237
*601 mult_56_n236
*602 mult_56_n235
*603 mult_56_n234
*604 mult_56_n233
*605 mult_56_n232
*606 mult_56_n231
*607 mult_56_n230
*608 mult_56_n229
*609 mult_56_n228
*610 mult_56_n227
*611 mult_56_n226
*612 mult_56_n225
*613 mult_56_n224
*614 mult_56_n223
*615 mult_56_n222
*616 mult_56_n221
*617 mult_56_n220
*618 mult_56_n219
*619 mult_56_n218
*620 mult_56_n217
*621 mult_56_n216
*622 mult_56_n215
*623 mult_56_n214
*624 mult_56_n213
*625 mult_56_n212
*626 mult_56_n211
*627 mult_56_n210
*628 mult_56_n209
*629 mult_56_n208
*630 mult_56_n207
*631 mult_56_n206
*632 mult_56_n205
*633 mult_56_n204
*634 mult_56_n203
*635 mult_56_n202
*636 mult_56_n201
*637 mult_56_n200
*638 mult_56_n199
*639 mult_56_n198
*640 mult_56_n197
*641 mult_56_n196
*642 mult_56_n195
*643 mult_56_n194
*644 mult_56_n193
*645 mult_56_n192
*646 mult_56_n191
*647 mult_56_n190
*648 mult_56_n189
*649 mult_56_n188
*650 mult_56_n187
*651 mult_56_n186
*652 mult_56_n185
*653 mult_56_n184
*654 mult_56_n183
*655 mult_56_n182
*656 mult_56_n181
*657 mult_56_n90
*658 mult_56_n89
*659 mult_56_n88
*660 mult_56_n87
*661 mult_56_n84
*662 mult_56_n83
*663 mult_56_n82
*664 mult_56_n81
*665 mult_56_n80
*666 mult_56_n79
*667 mult_56_n78
*668 mult_56_n77
*669 mult_56_n76
*670 mult_56_n75
*671 mult_56_n74
*672 mult_56_n73
*673 mult_56_n71
*674 mult_56_n69
*675 mult_56_n68
*676 mult_56_n67
*677 mult_56_n66
*678 mult_56_n62
*679 mult_56_n49
*680 mult_56_n48
*681 mult_56_n47
*682 mult_56_n46
*683 mult_56_n45
*684 mult_56_n44
*685 mult_56_n43
*686 mult_56_n42
*687 mult_56_n41
*688 mult_56_n40
*689 mult_56_n39
*690 mult_56_n38
*691 mult_56_n37
*692 mult_56_n36
*693 mult_56_n35
*694 mult_56_n34
*695 mult_56_n33
*696 mult_56_n32
*697 mult_56_n30
*698 mult_56_n29
*699 mult_56_n28
*700 mult_56_n27
*701 mult_56_n26
*702 mult_56_n25
*703 mult_56_n24
*704 mult_56_n23
*705 mult_56_n22
*706 mult_56_n20
*707 mult_56_n19
*708 mult_56_n18
*709 mult_56_n17
*710 mult_56_n16
*711 mult_56_n15
*712 mult_56_n9
*713 mult_56_n8
*714 mult_56_n7
*715 mult_56_n6
*716 mult_56_n5
*717 mult_56_n4
*718 mult_56_n3
*719 mult_56_n2
*720 mult_55_n252
*721 mult_55_n251
*722 mult_55_n250
*723 mult_55_n249
*724 mult_55_n248
*725 mult_55_n247
*726 mult_55_n246
*727 mult_55_n245
*728 mult_55_n244
*729 mult_55_n243
*730 mult_55_n242
*731 mult_55_n241
*732 mult_55_n240
*733 mult_55_n239
*734 mult_55_n238
*735 mult_55_n237
*736 mult_55_n236
*737 mult_55_n235
*738 mult_55_n234
*739 mult_55_n233
*740 mult_55_n232
*741 mult_55_n231
*742 mult_55_n230
*743 mult_55_n229
*744 mult_55_n228
*745 mult_55_n227
*746 mult_55_n226
*747 mult_55_n225
*748 mult_55_n224
*749 mult_55_n223
*750 mult_55_n222
*751 mult_55_n221
*752 mult_55_n220
*753 mult_55_n219
*754 mult_55_n218
*755 mult_55_n217
*756 mult_55_n216
*757 mult_55_n215
*758 mult_55_n214
*759 mult_55_n213
*760 mult_55_n212
*761 mult_55_n211
*762 mult_55_n210
*763 mult_55_n209
*764 mult_55_n208
*765 mult_55_n207
*766 mult_55_n206
*767 mult_55_n205
*768 mult_55_n204
*769 mult_55_n203
*770 mult_55_n202
*771 mult_55_n201
*772 mult_55_n200
*773 mult_55_n199
*774 mult_55_n198
*775 mult_55_n197
*776 mult_55_n196
*777 mult_55_n195
*778 mult_55_n194
*779 mult_55_n193
*780 mult_55_n192
*781 mult_55_n191
*782 mult_55_n190
*783 mult_55_n189
*784 mult_55_n188
*785 mult_55_n187
*786 mult_55_n186
*787 mult_55_n185
*788 mult_55_n184
*789 mult_55_n183
*790 mult_55_n182
*791 mult_55_n181
*792 mult_55_n90
*793 mult_55_n89
*794 mult_55_n88
*795 mult_55_n87
*796 mult_55_n84
*797 mult_55_n83
*798 mult_55_n82
*799 mult_55_n81
*800 mult_55_n80
*801 mult_55_n79
*802 mult_55_n78
*803 mult_55_n77
*804 mult_55_n76
*805 mult_55_n75
*806 mult_55_n74
*807 mult_55_n73
*808 mult_55_n71
*809 mult_55_n69
*810 mult_55_n68
*811 mult_55_n67
*812 mult_55_n66
*813 mult_55_n62
*814 mult_55_n49
*815 mult_55_n48
*816 mult_55_n47
*817 mult_55_n46
*818 mult_55_n45
*819 mult_55_n44
*820 mult_55_n43
*821 mult_55_n42
*822 mult_55_n41
*823 mult_55_n40
*824 mult_55_n39
*825 mult_55_n38
*826 mult_55_n37
*827 mult_55_n36
*828 mult_55_n35
*829 mult_55_n34
*830 mult_55_n33
*831 mult_55_n32
*832 mult_55_n30
*833 mult_55_n29
*834 mult_55_n28
*835 mult_55_n27
*836 mult_55_n26
*837 mult_55_n25
*838 mult_55_n24
*839 mult_55_n23
*840 mult_55_n22
*841 mult_55_n20
*842 mult_55_n19
*843 mult_55_n18
*844 mult_55_n17
*845 mult_55_n16
*846 mult_55_n15
*847 mult_55_n9
*848 mult_55_n8
*849 mult_55_n7
*850 mult_55_n6
*851 mult_55_n5
*852 mult_55_n4
*853 mult_55_n3
*854 mult_55_n2
*855 add_1_root_add_0_root_add_53_2_n1
*856 add_0_root_add_0_root_add_53_2_n1
*857 mult_50_n252
*858 mult_50_n250
*859 mult_50_n249
*860 mult_50_n248
*861 mult_50_n247
*862 mult_50_n246
*863 mult_50_n245
*864 mult_50_n244
*865 mult_50_n243
*866 mult_50_n242
*867 mult_50_n241
*868 mult_50_n240
*869 mult_50_n239
*870 mult_50_n238
*871 mult_50_n237
*872 mult_50_n236
*873 mult_50_n235
*874 mult_50_n234
*875 mult_50_n233
*876 mult_50_n232
*877 mult_50_n231
*878 mult_50_n230
*879 mult_50_n229
*880 mult_50_n228
*881 mult_50_n227
*882 mult_50_n226
*883 mult_50_n225
*884 mult_50_n224
*885 mult_50_n223
*886 mult_50_n222
*887 mult_50_n221
*888 mult_50_n220
*889 mult_50_n219
*890 mult_50_n218
*891 mult_50_n217
*892 mult_50_n216
*893 mult_50_n215
*894 mult_50_n214
*895 mult_50_n213
*896 mult_50_n212
*897 mult_50_n211
*898 mult_50_n210
*899 mult_50_n209
*900 mult_50_n208
*901 mult_50_n207
*902 mult_50_n206
*903 mult_50_n205
*904 mult_50_n203
*905 mult_50_n202
*906 mult_50_n201
*907 mult_50_n200
*908 mult_50_n199
*909 mult_50_n197
*910 mult_50_n196
*911 mult_50_n194
*912 mult_50_n193
*913 mult_50_n192
*914 mult_50_n191
*915 mult_50_n190
*916 mult_50_n188
*917 mult_50_n187
*918 mult_50_n186
*919 mult_50_n183
*920 mult_50_n182
*921 mult_50_n181
*922 mult_50_n90
*923 mult_50_n89
*924 mult_50_n88
*925 mult_50_n87
*926 mult_50_n84
*927 mult_50_n83
*928 mult_50_n82
*929 mult_50_n81
*930 mult_50_n80
*931 mult_50_n79
*932 mult_50_n78
*933 mult_50_n77
*934 mult_50_n76
*935 mult_50_n75
*936 mult_50_n74
*937 mult_50_n73
*938 mult_50_n71
*939 mult_50_n69
*940 mult_50_n68
*941 mult_50_n67
*942 mult_50_n66
*943 mult_50_n62
*944 mult_50_n49
*945 mult_50_n48
*946 mult_50_n47
*947 mult_50_n46
*948 mult_50_n45
*949 mult_50_n44
*950 mult_50_n43
*951 mult_50_n42
*952 mult_50_n41
*953 mult_50_n40
*954 mult_50_n39
*955 mult_50_n38
*956 mult_50_n37
*957 mult_50_n36
*958 mult_50_n35
*959 mult_50_n34
*960 mult_50_n33
*961 mult_50_n32
*962 mult_50_n30
*963 mult_50_n29
*964 mult_50_n28
*965 mult_50_n27
*966 mult_50_n26
*967 mult_50_n25
*968 mult_50_n24
*969 mult_50_n23
*970 mult_50_n22
*971 mult_50_n20
*972 mult_50_n19
*973 mult_50_n18
*974 mult_50_n17
*975 mult_50_n16
*976 mult_50_n15
*977 mult_50_n9
*978 mult_50_n8
*979 mult_50_n7
*980 mult_50_n6
*981 mult_50_n5
*982 mult_50_n4
*983 mult_50_n3
*984 mult_50_n2
*985 mult_51_n252
*986 mult_51_n251
*987 mult_51_n250
*988 mult_51_n249
*989 mult_51_n248
*990 mult_51_n247
*991 mult_51_n246
*992 mult_51_n245
*993 mult_51_n244
*994 mult_51_n243
*995 mult_51_n242
*996 mult_51_n241
*997 mult_51_n240
*998 mult_51_n239
*999 mult_51_n238
*1000 mult_51_n237
*1001 mult_51_n236
*1002 mult_51_n235
*1003 mult_51_n234
*1004 mult_51_n233
*1005 mult_51_n232
*1006 mult_51_n231
*1007 mult_51_n230
*1008 mult_51_n229
*1009 mult_51_n228
*1010 mult_51_n227
*1011 mult_51_n226
*1012 mult_51_n225
*1013 mult_51_n224
*1014 mult_51_n223
*1015 mult_51_n222
*1016 mult_51_n221
*1017 mult_51_n220
*1018 mult_51_n219
*1019 mult_51_n218
*1020 mult_51_n217
*1021 mult_51_n216
*1022 mult_51_n215
*1023 mult_51_n214
*1024 mult_51_n213
*1025 mult_51_n212
*1026 mult_51_n211
*1027 mult_51_n210
*1028 mult_51_n209
*1029 mult_51_n208
*1030 mult_51_n207
*1031 mult_51_n206
*1032 mult_51_n205
*1033 mult_51_n204
*1034 mult_51_n203
*1035 mult_51_n202
*1036 mult_51_n201
*1037 mult_51_n200
*1038 mult_51_n199
*1039 mult_51_n197
*1040 mult_51_n196
*1041 mult_51_n194
*1042 mult_51_n193
*1043 mult_51_n192
*1044 mult_51_n191
*1045 mult_51_n190
*1046 mult_51_n188
*1047 mult_51_n187
*1048 mult_51_n186
*1049 mult_51_n185
*1050 mult_51_n183
*1051 mult_51_n182
*1052 mult_51_n181
*1053 mult_51_n90
*1054 mult_51_n89
*1055 mult_51_n88
*1056 mult_51_n87
*1057 mult_51_n84
*1058 mult_51_n83
*1059 mult_51_n82
*1060 mult_51_n81
*1061 mult_51_n80
*1062 mult_51_n79
*1063 mult_51_n78
*1064 mult_51_n77
*1065 mult_51_n76
*1066 mult_51_n75
*1067 mult_51_n74
*1068 mult_51_n73
*1069 mult_51_n71
*1070 mult_51_n69
*1071 mult_51_n68
*1072 mult_51_n67
*1073 mult_51_n66
*1074 mult_51_n62
*1075 mult_51_n49
*1076 mult_51_n48
*1077 mult_51_n47
*1078 mult_51_n46
*1079 mult_51_n45
*1080 mult_51_n44
*1081 mult_51_n43
*1082 mult_51_n42
*1083 mult_51_n41
*1084 mult_51_n40
*1085 mult_51_n39
*1086 mult_51_n38
*1087 mult_51_n37
*1088 mult_51_n36
*1089 mult_51_n35
*1090 mult_51_n34
*1091 mult_51_n33
*1092 mult_51_n32
*1093 mult_51_n30
*1094 mult_51_n29
*1095 mult_51_n28
*1096 mult_51_n27
*1097 mult_51_n26
*1098 mult_51_n25
*1099 mult_51_n24
*1100 mult_51_n23
*1101 mult_51_n22
*1102 mult_51_n20
*1103 mult_51_n19
*1104 mult_51_n18
*1105 mult_51_n17
*1106 mult_51_n16
*1107 mult_51_n15
*1108 mult_51_n9
*1109 mult_51_n8
*1110 mult_51_n7
*1111 mult_51_n6
*1112 mult_51_n5
*1113 mult_51_n4
*1114 mult_51_n3
*1115 mult_51_n2
*1116 mult_49_n184
*1117 mult_49_n183
*1118 mult_49_n182
*1119 mult_49_n181
*1120 mult_49_n180
*1121 mult_49_n179
*1122 mult_49_n178
*1123 mult_49_n177
*1124 mult_49_n176
*1125 mult_49_n175
*1126 mult_49_n174
*1127 mult_49_n173
*1128 mult_49_n172
*1129 mult_49_n171
*1130 mult_49_n170
*1131 mult_49_n169
*1132 mult_49_n168
*1133 mult_49_n167
*1134 mult_49_n166
*1135 mult_49_n165
*1136 mult_49_n164
*1137 mult_49_n163
*1138 mult_49_n162
*1139 mult_49_n119
*1140 mult_49_n118
*1141 mult_49_n117
*1142 mult_49_n116
*1143 mult_49_n115
*1144 mult_49_n113
*1145 mult_49_n112
*1146 mult_49_n111
*1147 mult_49_n110
*1148 mult_49_n109
*1149 mult_49_n108
*1150 mult_49_n106
*1151 mult_49_n105
*1152 mult_49_n104
*1153 mult_49_n103
*1154 mult_49_n102
*1155 mult_49_n101
*1156 mult_49_n100
*1157 mult_49_n99
*1158 mult_49_n98
*1159 mult_49_n97
*1160 mult_49_n95
*1161 mult_49_n94
*1162 mult_49_n93
*1163 mult_49_n92
*1164 mult_49_n91
*1165 mult_49_n90
*1166 mult_49_n89
*1167 mult_49_n88
*1168 mult_49_n87
*1169 mult_49_n86
*1170 mult_49_n85
*1171 mult_49_n83
*1172 mult_49_n82
*1173 mult_49_n81
*1174 mult_49_n80
*1175 mult_49_n79
*1176 mult_49_n78
*1177 mult_49_n77
*1178 mult_49_n76
*1179 mult_49_n75
*1180 mult_49_n74
*1181 mult_49_n73
*1182 mult_49_n72
*1183 mult_49_n71
*1184 mult_49_n70
*1185 mult_49_n69
*1186 mult_49_n68
*1187 mult_49_n67
*1188 mult_49_n66
*1189 mult_49_n65
*1190 mult_49_n64
*1191 mult_49_n63
*1192 mult_49_n62
*1193 mult_49_n61
*1194 mult_49_n60
*1195 mult_49_n59
*1196 mult_49_n58
*1197 mult_49_n57
*1198 mult_49_n56
*1199 mult_49_n55
*1200 mult_49_n54
*1201 mult_49_n53
*1202 mult_49_n52
*1203 mult_49_n51
*1204 mult_49_n50
*1205 mult_49_n49
*1206 mult_49_n48
*1207 mult_49_n47
*1208 mult_49_n46
*1209 mult_49_n45
*1210 mult_49_n44
*1211 mult_49_n43
*1212 mult_49_n42
*1213 mult_49_n41
*1214 mult_49_n40
*1215 mult_49_n39
*1216 mult_49_n38
*1217 mult_49_n37
*1218 mult_49_n36
*1219 mult_49_n35
*1220 mult_49_n34
*1221 mult_49_n33
*1222 mult_49_n32
*1223 mult_49_n31
*1224 mult_49_n30
*1225 mult_49_n29
*1226 mult_49_n28
*1227 mult_49_n27
*1228 mult_49_n26
*1229 mult_49_n25
*1230 mult_49_n24
*1231 mult_49_n23
*1232 mult_49_n22
*1233 mult_49_n21
*1234 mult_49_n20
*1235 mult_49_n19
*1236 mult_49_n18
*1237 mult_49_n17
*1238 mult_49_n16
*1239 mult_49_n15
*1240 mult_49_n14
*1241 mult_49_n13
*1242 mult_49_n8
*1243 mult_49_n7
*1244 mult_49_n6
*1245 mult_49_n5
*1246 mult_49_n4
*1247 mult_49_n3
*1248 mult_49_n2
*1249 mult_49_n1
*1250 TMP_a1[13]
*1251 TMP_a1[12]
*1252 TMP_a1[11]
*1253 TMP_a1[10]
*1254 TMP_a1[9]
*1255 TMP_a1[8]
*1256 TMP_a1[7]
*1257 TMP_a1[6]
*1258 TMPq4_c3[13]
*1259 TMPq4_c3[12]
*1260 TMPq4_c3[11]
*1261 TMPq4_c3[10]
*1262 TMPq4_c3[9]
*1263 TMPq4_c3[8]
*1264 TMPq4_c3[7]
*1265 TMPq4_c3[6]
*1266 TMPq2_c2[13]
*1267 TMPq2_c2[12]
*1268 TMPq2_c2[11]
*1269 TMPq2_c2[10]
*1270 TMPq2_c2[9]
*1271 TMPq2_c2[8]
*1272 TMPq2_c2[7]
*1273 TMPq2_c2[6]
*1274 TMP_reg1[7]
*1275 TMP_reg1[6]
*1276 TMP_reg1[5]
*1277 TMP_reg1[4]
*1278 TMP_reg1[3]
*1279 TMP_reg1[2]
*1280 TMP_reg1[1]
*1281 TMP_reg1[0]
*1282 TMPa[7]
*1283 TMPa[6]
*1284 TMPa[5]
*1285 TMPa[4]
*1286 TMPa[3]
*1287 TMPa[2]
*1288 TMPa[1]
*1289 TMPa[0]
*1290 TMPq8_b0[13]
*1291 TMPq8_b0[12]
*1292 TMPq8_b0[11]
*1293 TMPq8_b0[10]
*1294 TMPq8_b0[9]
*1295 TMPq8_b0[8]
*1296 TMPq8_b0[7]
*1297 TMPq8_b0[6]
*1298 TMPq7_b1[13]
*1299 TMPq7_b1[12]
*1300 TMPq7_b1[11]
*1301 TMPq7_b1[10]
*1302 TMPq7_b1[9]
*1303 TMPq7_b1[8]
*1304 TMPq7_b1[7]
*1305 TMPq7_b1[6]
*1306 TMPq5_b2[13]
*1307 TMPq5_b2[12]
*1308 TMPq5_b2[11]
*1309 TMPq5_b2[10]
*1310 TMPq5_b2[9]
*1311 TMPq5_b2[8]
*1312 TMPq5_b2[7]
*1313 TMPq5_b2[6]
*1314 TMPb[7]
*1315 TMPb[6]
*1316 TMPb[5]
*1317 TMPb[4]
*1318 TMPb[3]
*1319 TMPb[2]
*1320 TMPb[1]
*1321 TMPb[0]
*1322 q_reg1[7]
*1323 q_reg1[6]
*1324 q_reg1[5]
*1325 q_reg1[4]
*1326 q_reg1[3]
*1327 q_reg1[2]
*1328 q_reg1[1]
*1329 q_reg1[0]
*1330 q_reg2[7]
*1331 q_reg2[6]
*1332 q_reg2[5]
*1333 q_reg2[4]
*1334 q_reg2[3]
*1335 q_reg2[2]
*1336 q_reg2[1]
*1337 q_reg2[0]
*1338 q_reg3[7]
*1339 q_reg3[6]
*1340 q_reg3[5]
*1341 q_reg3[4]
*1342 q_reg3[3]
*1343 q_reg3[2]
*1344 q_reg3[1]
*1345 q_reg3[0]
*1346 q_reg4[7]
*1347 q_reg4[6]
*1348 q_reg4[5]
*1349 q_reg4[4]
*1350 q_reg4[3]
*1351 q_reg4[2]
*1352 q_reg4[1]
*1353 q_reg4[0]
*1354 q_reg6[7]
*1355 q_reg6[6]
*1356 q_reg6[5]
*1357 q_reg6[4]
*1358 q_reg6[3]
*1359 q_reg6[2]
*1360 q_reg6[1]
*1361 q_reg6[0]
*1362 q_reg5[7]
*1363 q_reg5[6]
*1364 q_reg5[5]
*1365 q_reg5[4]
*1366 q_reg5[3]
*1367 q_reg5[2]
*1368 q_reg5[1]
*1369 q_reg5[0]
*1370 q_reg7[7]
*1371 q_reg7[6]
*1372 q_reg7[5]
*1373 q_reg7[4]
*1374 q_reg7[3]
*1375 q_reg7[2]
*1376 q_reg7[1]
*1377 q_reg7[0]
*1378 q_reg8[7]
*1379 q_reg8[6]
*1380 q_reg8[5]
*1381 q_reg8[4]
*1382 q_reg8[3]
*1383 q_reg8[2]
*1384 q_reg8[1]
*1385 q_reg8[0]
*1386 q_reg9[7]
*1387 q_reg9[6]
*1388 q_reg9[5]
*1389 q_reg9[4]
*1390 q_reg9[3]
*1391 q_reg9[2]
*1392 q_reg9[1]
*1393 q_reg9[0]
*1394 q_reg10[7]
*1395 q_reg10[6]
*1396 q_reg10[5]
*1397 q_reg10[4]
*1398 q_reg10[3]
*1399 q_reg10[2]
*1400 q_reg10[1]
*1401 q_reg10[0]
*1402 q_reg11[7]
*1403 q_reg11[6]
*1404 q_reg11[5]
*1405 q_reg11[4]
*1406 q_reg11[3]
*1407 q_reg11[2]
*1408 q_reg11[1]
*1409 q_reg11[0]
*1410 q_reg12[7]
*1411 q_reg12[6]
*1412 q_reg12[5]
*1413 q_reg12[4]
*1414 q_reg12[3]
*1415 q_reg12[2]
*1416 q_reg12[1]
*1417 q_reg12[0]
*1418 q_reg13[7]
*1419 q_reg13[6]
*1420 q_reg13[5]
*1421 q_reg13[4]
*1422 q_reg13[3]
*1423 q_reg13[2]
*1424 q_reg13[1]
*1425 q_reg13[0]
*1426 add_52_carry[7]
*1427 add_52_carry[6]
*1428 add_52_carry[5]
*1429 add_52_carry[4]
*1430 add_52_carry[3]
*1431 add_52_carry[2]
*1432 add_1_root_add_0_root_add_58_2_carry[7]
*1433 add_1_root_add_0_root_add_58_2_carry[6]
*1434 add_1_root_add_0_root_add_58_2_carry[5]
*1435 add_1_root_add_0_root_add_58_2_carry[4]
*1436 add_1_root_add_0_root_add_58_2_carry[3]
*1437 add_1_root_add_0_root_add_58_2_carry[2]
*1438 add_0_root_add_0_root_add_58_2_carry[7]
*1439 add_0_root_add_0_root_add_58_2_carry[6]
*1440 add_0_root_add_0_root_add_58_2_carry[5]
*1441 add_0_root_add_0_root_add_58_2_carry[4]
*1442 add_0_root_add_0_root_add_58_2_carry[3]
*1443 add_0_root_add_0_root_add_58_2_carry[2]
*1444 add_1_root_add_0_root_add_53_2_carry[7]
*1445 add_1_root_add_0_root_add_53_2_carry[6]
*1446 add_1_root_add_0_root_add_53_2_carry[5]
*1447 add_1_root_add_0_root_add_53_2_carry[4]
*1448 add_1_root_add_0_root_add_53_2_carry[3]
*1449 add_1_root_add_0_root_add_53_2_carry[2]
*1450 add_0_root_add_0_root_add_53_2_carry[7]
*1451 add_0_root_add_0_root_add_53_2_carry[6]
*1452 add_0_root_add_0_root_add_53_2_carry[5]
*1453 add_0_root_add_0_root_add_53_2_carry[4]
*1454 add_0_root_add_0_root_add_53_2_carry[3]
*1455 add_0_root_add_0_root_add_53_2_carry[2]
*1456 dout[0]
*1457 FE_OFC5_vin
*1458 FE_OFC4_vin
*1459 FE_OFC3_vin
*1460 FE_OFC2_rst_n
*1461 FE_OFC1_rst_n
*1462 FE_OFC0_q_reg4_1
*1463 FE_RC_18_0
*1464 FE_RC_17_0
*1465 FE_RC_16_0
*1466 FE_RC_15_0
*1467 FE_RC_14_0
*1468 FE_RC_13_0
*1469 FE_RC_12_0
*1470 FE_RC_11_0
*1471 FE_RC_10_0
*1472 FE_RC_9_0
*1473 FE_RC_8_0
*1474 FE_RC_7_0
*1475 FE_RC_6_0
*1476 FE_DBTC3_q_reg4_0
*1477 FE_DBTC2_q_reg4_3
*1478 FE_DBTC1_q_reg4_5
*1479 FE_DBTC0_q_reg4_7
*1480 reg_1_U19
*1481 reg_1_U18
*1482 reg_1_U16
*1483 reg_1_U15
*1484 reg_1_U14
*1485 reg_1_U13
*1486 reg_1_U12
*1487 reg_1_U11
*1488 reg_1_U10
*1489 reg_1_U9
*1490 reg_1_U8
*1491 reg_1_U7
*1492 reg_1_U5
*1493 reg_1_U4
*1494 reg_1_U3
*1495 reg_1_U2
*1496 reg_1_Q_reg_0_
*1497 reg_1_Q_reg_1_
*1498 reg_1_Q_reg_2_
*1499 reg_1_Q_reg_3_
*1500 reg_1_Q_reg_4_
*1501 reg_1_Q_reg_5_
*1502 reg_1_Q_reg_6_
*1503 reg_1_Q_reg_7_
*1504 reg_2_U17
*1505 reg_2_U16
*1506 reg_2_U15
*1507 reg_2_U14
*1508 reg_2_U13
*1509 reg_2_U12
*1510 reg_2_U11
*1511 reg_2_U10
*1512 reg_2_U9
*1513 reg_2_U8
*1514 reg_2_U7
*1515 reg_2_U6
*1516 reg_2_U5
*1517 reg_2_U4
*1518 reg_2_U3
*1519 reg_2_U2
*1520 reg_2_Q_reg_0_
*1521 reg_2_Q_reg_1_
*1522 reg_2_Q_reg_2_
*1523 reg_2_Q_reg_3_
*1524 reg_2_Q_reg_4_
*1525 reg_2_Q_reg_5_
*1526 reg_2_Q_reg_6_
*1527 reg_2_Q_reg_7_
*1528 reg_3_U17
*1529 reg_3_U16
*1530 reg_3_U15
*1531 reg_3_U14
*1532 reg_3_U13
*1533 reg_3_U12
*1534 reg_3_U11
*1535 reg_3_U10
*1536 reg_3_U9
*1537 reg_3_U8
*1538 reg_3_U7
*1539 reg_3_U6
*1540 reg_3_U5
*1541 reg_3_U4
*1542 reg_3_U3
*1543 reg_3_U2
*1544 reg_3_Q_reg_0_
*1545 reg_3_Q_reg_1_
*1546 reg_3_Q_reg_2_
*1547 reg_3_Q_reg_3_
*1548 reg_3_Q_reg_4_
*1549 reg_3_Q_reg_5_
*1550 reg_3_Q_reg_6_
*1551 reg_3_Q_reg_7_
*1552 reg_4_U19
*1553 reg_4_U18
*1554 reg_4_U16
*1555 reg_4_U15
*1556 reg_4_U14
*1557 reg_4_U13
*1558 reg_4_U12
*1559 reg_4_U11
*1560 reg_4_U9
*1561 reg_4_U8
*1562 reg_4_U7
*1563 reg_4_U6
*1564 reg_4_U5
*1565 reg_4_U4
*1566 reg_4_U3
*1567 reg_4_U2
*1568 reg_4_Q_reg_0_
*1569 reg_4_Q_reg_1_
*1570 reg_4_Q_reg_2_
*1571 reg_4_Q_reg_3_
*1572 reg_4_Q_reg_4_
*1573 reg_4_Q_reg_5_
*1574 reg_4_Q_reg_6_
*1575 reg_4_Q_reg_7_
*1576 reg_5_U19
*1577 reg_5_U18
*1578 reg_5_U17
*1579 reg_5_U16
*1580 reg_5_U15
*1581 reg_5_U14
*1582 reg_5_U12
*1583 reg_5_U11
*1584 reg_5_U10
*1585 reg_5_U9
*1586 reg_5_U8
*1587 reg_5_U7
*1588 reg_5_U6
*1589 reg_5_U5
*1590 reg_5_U4
*1591 reg_5_U3
*1592 reg_5_Q_reg_0_
*1593 reg_5_Q_reg_1_
*1594 reg_5_Q_reg_2_
*1595 reg_5_Q_reg_3_
*1596 reg_5_Q_reg_4_
*1597 reg_5_Q_reg_5_
*1598 reg_5_Q_reg_6_
*1599 reg_5_Q_reg_7_
*1600 reg_6_U19
*1601 reg_6_U18
*1602 reg_6_U17
*1603 reg_6_U16
*1604 reg_6_U14
*1605 reg_6_U13
*1606 reg_6_U12
*1607 reg_6_U11
*1608 reg_6_U10
*1609 reg_6_U9
*1610 reg_6_U8
*1611 reg_6_U7
*1612 reg_6_U6
*1613 reg_6_U5
*1614 reg_6_U4
*1615 reg_6_U3
*1616 reg_6_Q_reg_0_
*1617 reg_6_Q_reg_1_
*1618 reg_6_Q_reg_2_
*1619 reg_6_Q_reg_3_
*1620 reg_6_Q_reg_4_
*1621 reg_6_Q_reg_5_
*1622 reg_6_Q_reg_6_
*1623 reg_6_Q_reg_7_
*1624 reg_7_U19
*1625 reg_7_U18
*1626 reg_7_U17
*1627 reg_7_U16
*1628 reg_7_U14
*1629 reg_7_U13
*1630 reg_7_U12
*1631 reg_7_U11
*1632 reg_7_U10
*1633 reg_7_U9
*1634 reg_7_U8
*1635 reg_7_U7
*1636 reg_7_U6
*1637 reg_7_U5
*1638 reg_7_U4
*1639 reg_7_U3
*1640 reg_7_Q_reg_0_
*1641 reg_7_Q_reg_1_
*1642 reg_7_Q_reg_2_
*1643 reg_7_Q_reg_3_
*1644 reg_7_Q_reg_4_
*1645 reg_7_Q_reg_5_
*1646 reg_7_Q_reg_6_
*1647 reg_7_Q_reg_7_
*1648 reg_8_U19
*1649 reg_8_U18
*1650 reg_8_U16
*1651 reg_8_U15
*1652 reg_8_U14
*1653 reg_8_U13
*1654 reg_8_U12
*1655 reg_8_U11
*1656 reg_8_U9
*1657 reg_8_U8
*1658 reg_8_U7
*1659 reg_8_U6
*1660 reg_8_U5
*1661 reg_8_U4
*1662 reg_8_U3
*1663 reg_8_U2
*1664 reg_8_Q_reg_0_
*1665 reg_8_Q_reg_1_
*1666 reg_8_Q_reg_2_
*1667 reg_8_Q_reg_3_
*1668 reg_8_Q_reg_4_
*1669 reg_8_Q_reg_5_
*1670 reg_8_Q_reg_6_
*1671 reg_8_Q_reg_7_
*1672 reg_9_U17
*1673 reg_9_U16
*1674 reg_9_U15
*1675 reg_9_U14
*1676 reg_9_U13
*1677 reg_9_U12
*1678 reg_9_U11
*1679 reg_9_U10
*1680 reg_9_U9
*1681 reg_9_U8
*1682 reg_9_U7
*1683 reg_9_U6
*1684 reg_9_U5
*1685 reg_9_U4
*1686 reg_9_U3
*1687 reg_9_U2
*1688 reg_9_Q_reg_0_
*1689 reg_9_Q_reg_1_
*1690 reg_9_Q_reg_2_
*1691 reg_9_Q_reg_3_
*1692 reg_9_Q_reg_4_
*1693 reg_9_Q_reg_5_
*1694 reg_9_Q_reg_6_
*1695 reg_9_Q_reg_7_
*1696 reg_10_U17
*1697 reg_10_U16
*1698 reg_10_U15
*1699 reg_10_U14
*1700 reg_10_U13
*1701 reg_10_U12
*1702 reg_10_U11
*1703 reg_10_U10
*1704 reg_10_U9
*1705 reg_10_U8
*1706 reg_10_U7
*1707 reg_10_U6
*1708 reg_10_U5
*1709 reg_10_U4
*1710 reg_10_U3
*1711 reg_10_U2
*1712 reg_10_Q_reg_0_
*1713 reg_10_Q_reg_1_
*1714 reg_10_Q_reg_2_
*1715 reg_10_Q_reg_3_
*1716 reg_10_Q_reg_4_
*1717 reg_10_Q_reg_5_
*1718 reg_10_Q_reg_6_
*1719 reg_10_Q_reg_7_
*1720 reg_11_U17
*1721 reg_11_U16
*1722 reg_11_U15
*1723 reg_11_U14
*1724 reg_11_U13
*1725 reg_11_U12