*SPEF "IEEE 1481-1998"
*DESIGN "iir_filter"
*DATE "Mon Nov 15 13:34:12 2021"
*VENDOR "Cadence Design Systems, Inc."
*PROGRAM "Innovus"
*VERSION "17.11-s080_1"
*DESIGN_FLOW "COUPLING C" "PIN_CAP NONE" "NAME_SCOPE LOCAL"
*DIVIDER /
*DELIMITER :
*BUS_DELIMITER []
*T_UNIT 1 NS
*C_UNIT 1 PF
*R_UNIT 1 OHM
*L_UNIT 1 HENRY

// MMMC spef file for corner 'my_rc'

*NAME_MAP

*1 FE_OFN3_vin
*2 FE_OFN2_vin
*3 FE_OFN1_vin
*4 FE_OFN0_rst_n
*5 din[8]
*6 din[7]
*7 din[6]
*8 din[5]
*9 din[4]
*10 din[3]
*11 din[2]
*12 din[1]
*13 din[0]
*14 a1[8]
*15 a1[7]
*16 a1[6]
*17 a1[5]
*18 a1[4]
*19 a1[3]
*20 a1[2]
*21 a1[1]
*22 a1[0]
*23 c2[8]
*24 c2[7]
*25 c2[6]
*26 c2[5]
*27 c2[4]
*28 c2[3]
*29 c2[2]
*30 c2[1]
*31 c2[0]
*32 c3[8]
*33 c3[7]
*34 c3[6]
*35 c3[5]
*36 c3[4]
*37 c3[3]
*38 c3[2]
*39 c3[1]
*40 c3[0]
*41 b0[8]
*42 b0[7]
*43 b0[6]
*44 b0[5]
*45 b0[4]
*46 b0[3]
*47 b0[2]
*48 b0[1]
*49 b0[0]
*50 b1[8]
*51 b1[7]
*52 b1[6]
*53 b1[5]
*54 b1[4]
*55 b1[3]
*56 b1[2]
*57 b1[1]
*58 b1[0]
*59 b2[8]
*60 b2[7]
*61 b2[6]
*62 b2[5]
*63 b2[4]
*64 b2[3]
*65 b2[2]
*66 b2[1]
*67 b2[0]
*68 dout[8]
*69 dout[7]
*70 dout[6]
*71 dout[5]
*72 dout[4]
*73 dout[3]
*74 dout[2]
*75 dout[1]
*76 clock
*77 rst_n
*78 vin
*79 vout
*80 vout_ff1
*81 vout_ff2
*82 N9
*83 N8
*84 N7
*85 N14
*86 N13
*87 N12
*88 N11
*89 N10
*90 N6
*91 N5
*92 N4
*93 N3
*94 N2
*95 N1
*96 N0
*97 TMPq3_c3_9_
*98 TMPq3_c3_8_
*99 TMPq3_c3_7_
*100 TMPq3_c3_6_
*101 TMPq3_c3_12_
*102 TMPq3_c3_11_
*103 TMPq3_c3_10_
*104 TMP_a1_9_
*105 TMP_a1_8_
*106 TMP_a1_7_
*107 TMP_a1_6_
*108 TMP_a1_12_
*109 TMP_a1_11_
*110 TMP_a1_10_
*111 reg_1_n21
*112 reg_1_n20
*113 reg_1_n19
*114 reg_1_n18
*115 reg_1_n17
*116 reg_1_n16
*117 reg_1_n15
*118 reg_1_n14
*119 reg_1_n13
*120 reg_1_n12
*121 reg_1_n11
*122 reg_1_n10
*123 reg_1_n9
*124 reg_1_n8
*125 reg_1_n7
*126 reg_1_n6
*127 reg_1_n5
*128 reg_1_n4
*129 reg_1_n3
*130 reg_1_n2
*131 reg_1_n1
*132 reg_2_n44
*133 reg_2_n43
*134 reg_2_n42
*135 reg_2_n41
*136 reg_2_n40
*137 reg_2_n39
*138 reg_2_n38
*139 reg_2_n37
*140 reg_2_n36
*141 reg_2_n35
*142 reg_2_n34
*143 reg_2_n33
*144 reg_2_n32
*145 reg_2_n31
*146 reg_2_n30
*147 reg_2_n29
*148 reg_2_n28
*149 reg_2_n27
*150 reg_2_n26
*151 reg_2_n25
*152 reg_2_n24
*153 reg_3_n44
*154 reg_3_n43
*155 reg_3_n42
*156 reg_3_n41
*157 reg_3_n40
*158 reg_3_n39
*159 reg_3_n38
*160 reg_3_n37
*161 reg_3_n36
*162 reg_3_n35
*163 reg_3_n34
*164 reg_3_n33
*165 reg_3_n32
*166 reg_3_n31
*167 reg_3_n30
*168 reg_3_n29
*169 reg_3_n28
*170 reg_3_n27
*171 reg_3_n26
*172 reg_3_n25
*173 reg_3_n24
*174 reg_4_n44
*175 reg_4_n43
*176 reg_4_n42
*177 reg_4_n41
*178 reg_4_n40
*179 reg_4_n39
*180 reg_4_n38
*181 reg_4_n37
*182 reg_4_n36
*183 reg_4_n35
*184 reg_4_n34
*185 reg_4_n33
*186 reg_4_n32
*187 reg_4_n31
*188 reg_4_n30
*189 reg_4_n29
*190 reg_4_n28
*191 reg_4_n27
*192 reg_4_n26
*193 reg_4_n25
*194 reg_4_n24
*195 reg_5_n44
*196 reg_5_n43
*197 reg_5_n42
*198 reg_5_n41
*199 reg_5_n40
*200 reg_5_n39
*201 reg_5_n38
*202 reg_5_n37
*203 reg_5_n36
*204 reg_5_n35
*205 reg_5_n34
*206 reg_5_n33
*207 reg_5_n32
*208 reg_5_n31
*209 reg_5_n30
*210 reg_5_n29
*211 reg_5_n28
*212 reg_5_n27
*213 reg_5_n26
*214 reg_5_n25
*215 reg_5_n24
*216 reg_6_n44
*217 reg_6_n43
*218 reg_6_n42
*219 reg_6_n41
*220 reg_6_n40
*221 reg_6_n39
*222 reg_6_n38
*223 reg_6_n37
*224 reg_6_n36
*225 reg_6_n35
*226 reg_6_n34
*227 reg_6_n33
*228 reg_6_n32
*229 reg_6_n31
*230 reg_6_n30
*231 reg_6_n29
*232 reg_6_n28
*233 reg_6_n27
*234 reg_6_n26
*235 reg_6_n25
*236 reg_6_n24
*237 reg_7_n44
*238 reg_7_n43
*239 reg_7_n42
*240 reg_7_n41
*241 reg_7_n40
*242 reg_7_n39
*243 reg_7_n38
*244 reg_7_n37
*245 reg_7_n36
*246 reg_7_n35
*247 reg_7_n34
*248 reg_7_n33
*249 reg_7_n32
*250 reg_7_n31
*251 reg_7_n30
*252 reg_7_n29
*253 reg_7_n28
*254 reg_7_n27
*255 reg_7_n26
*256 reg_7_n25
*257 reg_7_n24
*258 reg_8_n44
*259 reg_8_n43
*260 reg_8_n42
*261 reg_8_n41
*262 reg_8_n40
*263 reg_8_n39
*264 reg_8_n38
*265 reg_8_n37
*266 reg_8_n36
*267 reg_8_n35
*268 reg_8_n34
*269 reg_8_n33
*270 reg_8_n32
*271 reg_8_n31
*272 reg_8_n30
*273 reg_8_n29
*274 reg_8_n28
*275 reg_8_n27
*276 reg_8_n26
*277 reg_8_n25
*278 reg_8_n24
*279 reg_9_n24
*280 reg_9_n23
*281 reg_9_n22
*282 reg_9_n21
*283 reg_9_n20
*284 reg_9_n19
*285 reg_9_n18
*286 reg_9_n17
*287 reg_9_n16
*288 reg_9_n15
*289 reg_9_n14
*290 reg_9_n13
*291 reg_9_n12
*292 reg_9_n11
*293 reg_9_n10
*294 reg_9_n9
*295 reg_9_n8
*296 reg_9_n7
*297 reg_9_n6
*298 reg_9_n5
*299 reg_9_n4
*300 reg_9_n3
*301 reg_9_n2
*302 reg_9_n1
*303 reg_10_n50
*304 reg_10_n49
*305 reg_10_n48
*306 reg_10_n47
*307 reg_10_n46
*308 reg_10_n45
*309 reg_10_n44
*310 reg_10_n43
*311 reg_10_n42
*312 reg_10_n41
*313 reg_10_n40
*314 reg_10_n39
*315 reg_10_n38
*316 reg_10_n37
*317 reg_10_n36
*318 reg_10_n35
*319 reg_10_n34
*320 reg_10_n33
*321 reg_10_n32
*322 reg_10_n31
*323 reg_10_n30
*324 reg_10_n29
*325 reg_10_n28
*326 reg_10_n27
*327 reg_11_n50
*328 reg_11_n49
*329 reg_11_n48
*330 reg_11_n47
*331 reg_11_n46
*332 reg_11_n45
*333 reg_11_n44
*334 reg_11_n43
*335 reg_11_n42
*336 reg_11_n41
*337 reg_11_n40
*338 reg_11_n39
*339 reg_11_n38
*340 reg_11_n37
*341 reg_11_n36
*342 reg_11_n35
*343 reg_11_n34
*344 reg_11_n33
*345 reg_11_n32
*346 reg_11_n31
*347 reg_11_n30
*348 reg_11_n29
*349 reg_11_n28
*350 reg_11_n27
*351 ff_1_n3
*352 ff_1_n2
*353 ff_1_n1
*354 ff_2_n5
*355 ff_3_n5
*356 reg_dout_n50
*357 reg_dout_n49
*358 reg_dout_n48
*359 reg_dout_n47
*360 reg_dout_n46
*361 reg_dout_n45
*362 reg_dout_n44
*363 reg_dout_n43
*364 reg_dout_n42
*365 reg_dout_n41
*366 reg_dout_n40
*367 reg_dout_n39
*368 reg_dout_n38
*369 reg_dout_n37
*370 reg_dout_n36
*371 reg_dout_n35
*372 reg_dout_n34
*373 reg_dout_n33
*374 reg_dout_n32
*375 reg_dout_n31
*376 reg_dout_n30
*377 reg_dout_n29
*378 reg_dout_n28
*379 reg_dout_n27
*380 add_1_root_add_0_root_add_58_2_n1
*381 add_0_root_add_0_root_add_58_2_n2
*382 mult_57_n184
*383 mult_57_n183
*384 mult_57_n182
*385 mult_57_n181
*386 mult_57_n180
*387 mult_57_n179
*388 mult_57_n178
*389 mult_57_n177
*390 mult_57_n176
*391 mult_57_n175
*392 mult_57_n174
*393 mult_57_n173
*394 mult_57_n172
*395 mult_57_n171
*396 mult_57_n170
*397 mult_57_n169
*398 mult_57_n168
*399 mult_57_n167
*400 mult_57_n166
*401 mult_57_n165
*402 mult_57_n164
*403 mult_57_n163
*404 mult_57_n162
*405 mult_57_n119
*406 mult_57_n118
*407 mult_57_n117
*408 mult_57_n116
*409 mult_57_n115
*410 mult_57_n113
*411 mult_57_n112
*412 mult_57_n111
*413 mult_57_n110
*414 mult_57_n109
*415 mult_57_n108
*416 mult_57_n106
*417 mult_57_n105
*418 mult_57_n104
*419 mult_57_n103
*420 mult_57_n102
*421 mult_57_n101
*422 mult_57_n100
*423 mult_57_n99
*424 mult_57_n98
*425 mult_57_n97
*426 mult_57_n95
*427 mult_57_n94
*428 mult_57_n93
*429 mult_57_n92
*430 mult_57_n91
*431 mult_57_n90
*432 mult_57_n89
*433 mult_57_n88
*434 mult_57_n87
*435 mult_57_n86
*436 mult_57_n85
*437 mult_57_n83
*438 mult_57_n82
*439 mult_57_n81
*440 mult_57_n80
*441 mult_57_n79
*442 mult_57_n78
*443 mult_57_n77
*444 mult_57_n76
*445 mult_57_n75
*446 mult_57_n74
*447 mult_57_n73
*448 mult_57_n72
*449 mult_57_n71
*450 mult_57_n70
*451 mult_57_n69
*452 mult_57_n68
*453 mult_57_n67
*454 mult_57_n66
*455 mult_57_n65
*456 mult_57_n64
*457 mult_57_n63
*458 mult_57_n62
*459 mult_57_n61
*460 mult_57_n60
*461 mult_57_n59
*462 mult_57_n58
*463 mult_57_n57
*464 mult_57_n56
*465 mult_57_n55
*466 mult_57_n54
*467 mult_57_n53
*468 mult_57_n52
*469 mult_57_n51
*470 mult_57_n50
*471 mult_57_n49
*472 mult_57_n48
*473 mult_57_n47
*474 mult_57_n46
*475 mult_57_n45
*476 mult_57_n44
*477 mult_57_n43
*478 mult_57_n42
*479 mult_57_n41
*480 mult_57_n40
*481 mult_57_n39
*482 mult_57_n38
*483 mult_57_n37
*484 mult_57_n36
*485 mult_57_n35
*486 mult_57_n34
*487 mult_57_n33
*488 mult_57_n32
*489 mult_57_n31
*490 mult_57_n30
*491 mult_57_n29
*492 mult_57_n28
*493 mult_57_n27
*494 mult_57_n26
*495 mult_57_n25
*496 mult_57_n24
*497 mult_57_n23
*498 mult_57_n22
*499 mult_57_n21
*500 mult_57_n20
*501 mult_57_n19
*502 mult_57_n18
*503 mult_57_n17
*504 mult_57_n16
*505 mult_57_n15
*506 mult_57_n14
*507 mult_57_n13
*508 mult_57_n8
*509 mult_57_n7
*510 mult_57_n6
*511 mult_57_n5
*512 mult_57_n4
*513 mult_57_n3
*514 mult_57_n2
*515 mult_57_n1
*516 mult_56_n184
*517 mult_56_n183
*518 mult_56_n182
*519 mult_56_n181
*520 mult_56_n180
*521 mult_56_n179
*522 mult_56_n178
*523 mult_56_n177
*524 mult_56_n176
*525 mult_56_n175
*526 mult_56_n174
*527 mult_56_n173
*528 mult_56_n172
*529 mult_56_n171
*530 mult_56_n170
*531 mult_56_n169
*532 mult_56_n168
*533 mult_56_n167
*534 mult_56_n166
*535 mult_56_n165
*536 mult_56_n164
*537 mult_56_n163
*538 mult_56_n162
*539 mult_56_n119
*540 mult_56_n118
*541 mult_56_n117
*542 mult_56_n116
*543 mult_56_n115
*544 mult_56_n113
*545 mult_56_n112
*546 mult_56_n111
*547 mult_56_n110
*548 mult_56_n109
*549 mult_56_n108
*550 mult_56_n106
*551 mult_56_n105
*552 mult_56_n104
*553 mult_56_n103
*554 mult_56_n102
*555 mult_56_n101
*556 mult_56_n100
*557 mult_56_n99
*558 mult_56_n98
*559 mult_56_n97
*560 mult_56_n95
*561 mult_56_n94
*562 mult_56_n93
*563 mult_56_n92
*564 mult_56_n91
*565 mult_56_n90
*566 mult_56_n89
*567 mult_56_n88
*568 mult_56_n87
*569 mult_56_n86
*570 mult_56_n85
*571 mult_56_n83
*572 mult_56_n82
*573 mult_56_n81
*574 mult_56_n80
*575 mult_56_n79
*576 mult_56_n78
*577 mult_56_n77
*578 mult_56_n76
*579 mult_56_n75
*580 mult_56_n74
*581 mult_56_n73
*582 mult_56_n72
*583 mult_56_n71
*584 mult_56_n70
*585 mult_56_n69
*586 mult_56_n68
*587 mult_56_n67
*588 mult_56_n66
*589 mult_56_n65
*590 mult_56_n64
*591 mult_56_n63
*592 mult_56_n62
*593 mult_56_n61
*594 mult_56_n60
*595 mult_56_n59
*596 mult_56_n58
*597 mult_56_n57
*598 mult_56_n56
*599 mult_56_n55
*600 mult_56_n54
*601 mult_56_n53
*602 mult_56_n52
*603 mult_56_n51
*604 mult_56_n50
*605 mult_56_n49
*606 mult_56_n48
*607 mult_56_n47
*608 mult_56_n46
*609 mult_56_n45
*610 mult_56_n44
*611 mult_56_n43
*612 mult_56_n42
*613 mult_56_n41
*614 mult_56_n40
*615 mult_56_n39
*616 mult_56_n38
*617 mult_56_n37
*618 mult_56_n36
*619 mult_56_n35
*620 mult_56_n34
*621 mult_56_n33
*622 mult_56_n32
*623 mult_56_n31
*624 mult_56_n30
*625 mult_56_n29
*626 mult_56_n28
*627 mult_56_n27
*628 mult_56_n26
*629 mult_56_n25
*630 mult_56_n24
*631 mult_56_n23
*632 mult_56_n22
*633 mult_56_n21
*634 mult_56_n20
*635 mult_56_n19
*636 mult_56_n18
*637 mult_56_n17
*638 mult_56_n16
*639 mult_56_n15
*640 mult_56_n14
*641 mult_56_n13
*642 mult_56_n8
*643 mult_56_n7
*644 mult_56_n6
*645 mult_56_n5
*646 mult_56_n4
*647 mult_56_n3
*648 mult_56_n2
*649 mult_56_n1
*650 mult_55_n184
*651 mult_55_n183
*652 mult_55_n182
*653 mult_55_n181
*654 mult_55_n180
*655 mult_55_n179
*656 mult_55_n178
*657 mult_55_n177
*658 mult_55_n176
*659 mult_55_n175
*660 mult_55_n174
*661 mult_55_n173
*662 mult_55_n172
*663 mult_55_n171
*664 mult_55_n170
*665 mult_55_n169
*666 mult_55_n168
*667 mult_55_n167
*668 mult_55_n166
*669 mult_55_n165
*670 mult_55_n164
*671 mult_55_n163
*672 mult_55_n162
*673 mult_55_n119
*674 mult_55_n118
*675 mult_55_n117
*676 mult_55_n116
*677 mult_55_n115
*678 mult_55_n113
*679 mult_55_n112
*680 mult_55_n111
*681 mult_55_n110
*682 mult_55_n109
*683 mult_55_n108
*684 mult_55_n106
*685 mult_55_n105
*686 mult_55_n104
*687 mult_55_n103
*688 mult_55_n102
*689 mult_55_n101
*690 mult_55_n100
*691 mult_55_n99
*692 mult_55_n98
*693 mult_55_n97
*694 mult_55_n95
*695 mult_55_n94
*696 mult_55_n93
*697 mult_55_n92
*698 mult_55_n91
*699 mult_55_n90
*700 mult_55_n89
*701 mult_55_n88
*702 mult_55_n87
*703 mult_55_n86
*704 mult_55_n85
*705 mult_55_n83
*706 mult_55_n82
*707 mult_55_n81
*708 mult_55_n80
*709 mult_55_n79
*710 mult_55_n78
*711 mult_55_n77
*712 mult_55_n76
*713 mult_55_n75
*714 mult_55_n74
*715 mult_55_n73
*716 mult_55_n72
*717 mult_55_n71
*718 mult_55_n70
*719 mult_55_n69
*720 mult_55_n68
*721 mult_55_n67
*722 mult_55_n66
*723 mult_55_n65
*724 mult_55_n64
*725 mult_55_n63
*726 mult_55_n62
*727 mult_55_n61
*728 mult_55_n60
*729 mult_55_n59
*730 mult_55_n58
*731 mult_55_n57
*732 mult_55_n56
*733 mult_55_n55
*734 mult_55_n54
*735 mult_55_n53
*736 mult_55_n52
*737 mult_55_n51
*738 mult_55_n50
*739 mult_55_n49
*740 mult_55_n48
*741 mult_55_n47
*742 mult_55_n46
*743 mult_55_n45
*744 mult_55_n44
*745 mult_55_n43
*746 mult_55_n42
*747 mult_55_n41
*748 mult_55_n40
*749 mult_55_n39
*750 mult_55_n38
*751 mult_55_n37
*752 mult_55_n36
*753 mult_55_n35
*754 mult_55_n34
*755 mult_55_n33
*756 mult_55_n32
*757 mult_55_n31
*758 mult_55_n30
*759 mult_55_n29
*760 mult_55_n28
*761 mult_55_n27
*762 mult_55_n26
*763 mult_55_n25
*764 mult_55_n24
*765 mult_55_n23
*766 mult_55_n22
*767 mult_55_n21
*768 mult_55_n20
*769 mult_55_n19
*770 mult_55_n18
*771 mult_55_n17
*772 mult_55_n16
*773 mult_55_n15
*774 mult_55_n14
*775 mult_55_n13
*776 mult_55_n8
*777 mult_55_n7
*778 mult_55_n6
*779 mult_55_n5
*780 mult_55_n4
*781 mult_55_n3
*782 mult_55_n2
*783 mult_55_n1
*784 add_1_root_add_0_root_add_53_2_n1
*785 add_0_root_add_0_root_add_53_2_n1
*786 mult_51_n184
*787 mult_51_n183
*788 mult_51_n182
*789 mult_51_n181
*790 mult_51_n180
*791 mult_51_n179
*792 mult_51_n178
*793 mult_51_n177
*794 mult_51_n176
*795 mult_51_n175
*796 mult_51_n174
*797 mult_51_n173
*798 mult_51_n172
*799 mult_51_n171
*800 mult_51_n170
*801 mult_51_n169
*802 mult_51_n168
*803 mult_51_n167
*804 mult_51_n166
*805 mult_51_n165
*806 mult_51_n164
*807 mult_51_n163
*808 mult_51_n162
*809 mult_51_n161
*810 mult_51_n160
*811 mult_51_n119
*812 mult_51_n118
*813 mult_51_n117
*814 mult_51_n116
*815 mult_51_n115
*816 mult_51_n113
*817 mult_51_n112
*818 mult_51_n111
*819 mult_51_n110
*820 mult_51_n109
*821 mult_51_n108
*822 mult_51_n106
*823 mult_51_n105
*824 mult_51_n104
*825 mult_51_n103
*826 mult_51_n102
*827 mult_51_n101
*828 mult_51_n100
*829 mult_51_n99
*830 mult_51_n98
*831 mult_51_n97
*832 mult_51_n95
*833 mult_51_n94
*834 mult_51_n93
*835 mult_51_n92
*836 mult_51_n91
*837 mult_51_n90
*838 mult_51_n89
*839 mult_51_n88
*840 mult_51_n87
*841 mult_51_n86
*842 mult_51_n85
*843 mult_51_n83
*844 mult_51_n82
*845 mult_51_n81
*846 mult_51_n80
*847 mult_51_n79
*848 mult_51_n78
*849 mult_51_n77
*850 mult_51_n76
*851 mult_51_n75
*852 mult_51_n74
*853 mult_51_n72
*854 mult_51_n71
*855 mult_51_n70
*856 mult_51_n69
*857 mult_51_n68
*858 mult_51_n67
*859 mult_51_n66
*860 mult_51_n65
*861 mult_51_n64
*862 mult_51_n63
*863 mult_51_n62
*864 mult_51_n61
*865 mult_51_n60
*866 mult_51_n59
*867 mult_51_n58
*868 mult_51_n57
*869 mult_51_n56
*870 mult_51_n55
*871 mult_51_n54
*872 mult_51_n53
*873 mult_51_n52
*874 mult_51_n51
*875 mult_51_n50
*876 mult_51_n49
*877 mult_51_n48
*878 mult_51_n47
*879 mult_51_n46
*880 mult_51_n45
*881 mult_51_n44
*882 mult_51_n43
*883 mult_51_n42
*884 mult_51_n41
*885 mult_51_n40
*886 mult_51_n39
*887 mult_51_n38
*888 mult_51_n37
*889 mult_51_n36
*890 mult_51_n35
*891 mult_51_n34
*892 mult_51_n33
*893 mult_51_n32
*894 mult_51_n31
*895 mult_51_n30
*896 mult_51_n29
*897 mult_51_n28
*898 mult_51_n27
*899 mult_51_n26
*900 mult_51_n25
*901 mult_51_n24
*902 mult_51_n23
*903 mult_51_n22
*904 mult_51_n21
*905 mult_51_n20
*906 mult_51_n19
*907 mult_51_n18
*908 mult_51_n17
*909 mult_51_n16
*910 mult_51_n15
*911 mult_51_n14
*912 mult_51_n13
*913 mult_51_n8
*914 mult_51_n7
*915 mult_51_n6
*916 mult_51_n5
*917 mult_51_n4
*918 mult_51_n3
*919 mult_51_n2
*920 mult_49_n184
*921 mult_49_n183
*922 mult_49_n182
*923 mult_49_n181
*924 mult_49_n180
*925 mult_49_n179
*926 mult_49_n178
*927 mult_49_n177
*928 mult_49_n176
*929 mult_49_n175
*930 mult_49_n174
*931 mult_49_n173
*932 mult_49_n172
*933 mult_49_n171
*934 mult_49_n170
*935 mult_49_n169
*936 mult_49_n168
*937 mult_49_n167
*938 mult_49_n166
*939 mult_49_n165
*940 mult_49_n164
*941 mult_49_n163
*942 mult_49_n162
*943 mult_49_n161
*944 mult_49_n160
*945 mult_49_n119
*946 mult_49_n118
*947 mult_49_n117
*948 mult_49_n116
*949 mult_49_n115
*950 mult_49_n113
*951 mult_49_n112
*952 mult_49_n111
*953 mult_49_n110
*954 mult_49_n109
*955 mult_49_n108
*956 mult_49_n106
*957 mult_49_n105
*958 mult_49_n104
*959 mult_49_n103
*960 mult_49_n102
*961 mult_49_n101
*962 mult_49_n100
*963 mult_49_n99
*964 mult_49_n98
*965 mult_49_n97
*966 mult_49_n95
*967 mult_49_n94
*968 mult_49_n93
*969 mult_49_n92
*970 mult_49_n91
*971 mult_49_n90
*972 mult_49_n89
*973 mult_49_n88
*974 mult_49_n87
*975 mult_49_n86
*976 mult_49_n85
*977 mult_49_n83
*978 mult_49_n82
*979 mult_49_n81
*980 mult_49_n80
*981 mult_49_n79
*982 mult_49_n78
*983 mult_49_n77
*984 mult_49_n76
*985 mult_49_n75
*986 mult_49_n74
*987 mult_49_n72
*988 mult_49_n71
*989 mult_49_n70
*990 mult_49_n69
*991 mult_49_n68
*992 mult_49_n67
*993 mult_49_n66
*994 mult_49_n65
*995 mult_49_n64
*996 mult_49_n63
*997 mult_49_n62
*998 mult_49_n61
*999 mult_49_n60
*1000 mult_49_n59
*1001 mult_49_n58
*1002 mult_49_n57
*1003 mult_49_n56
*1004 mult_49_n55
*1005 mult_49_n54
*1006 mult_49_n53
*1007 mult_49_n52
*1008 mult_49_n51
*1009 mult_49_n50
*1010 mult_49_n49
*1011 mult_49_n48
*1012 mult_49_n47
*1013 mult_49_n46
*1014 mult_49_n45
*1015 mult_49_n44
*1016 mult_49_n43
*1017 mult_49_n42
*1018 mult_49_n41
*1019 mult_49_n40
*1020 mult_49_n39
*1021 mult_49_n38
*1022 mult_49_n37
*1023 mult_49_n36
*1024 mult_49_n35
*1025 mult_49_n34
*1026 mult_49_n33
*1027 mult_49_n32
*1028 mult_49_n31
*1029 mult_49_n30
*1030 mult_49_n29
*1031 mult_49_n28
*1032 mult_49_n27
*1033 mult_49_n26
*1034 mult_49_n25
*1035 mult_49_n24
*1036 mult_49_n23
*1037 mult_49_n22
*1038 mult_49_n21
*1039 mult_49_n20
*1040 mult_49_n19
*1041 mult_49_n18
*1042 mult_49_n17
*1043 mult_49_n16
*1044 mult_49_n15
*1045 mult_49_n14
*1046 mult_49_n13
*1047 mult_49_n8
*1048 mult_49_n7
*1049 mult_49_n6
*1050 mult_49_n5
*1051 mult_49_n4
*1052 mult_49_n3
*1053 mult_49_n2
*1054 mult_50_n184
*1055 mult_50_n183
*1056 mult_50_n182
*1057 mult_50_n181
*1058 mult_50_n180
*1059 mult_50_n179
*1060 mult_50_n178
*1061 mult_50_n177
*1062 mult_50_n176
*1063 mult_50_n175
*1064 mult_50_n174
*1065 mult_50_n173
*1066 mult_50_n172
*1067 mult_50_n171
*1068 mult_50_n170
*1069 mult_50_n169
*1070 mult_50_n168
*1071 mult_50_n167
*1072 mult_50_n166
*1073 mult_50_n165
*1074 mult_50_n164
*1075 mult_50_n163
*1076 mult_50_n162
*1077 mult_50_n161
*1078 mult_50_n160
*1079 mult_50_n119
*1080 mult_50_n118
*1081 mult_50_n117
*1082 mult_50_n116
*1083 mult_50_n115
*1084 mult_50_n113
*1085 mult_50_n112
*1086 mult_50_n111
*1087 mult_50_n110
*1088 mult_50_n109
*1089 mult_50_n108
*1090 mult_50_n106
*1091 mult_50_n105
*1092 mult_50_n104
*1093 mult_50_n103
*1094 mult_50_n102
*1095 mult_50_n101
*1096 mult_50_n100
*1097 mult_50_n99
*1098 mult_50_n98
*1099 mult_50_n97
*1100 mult_50_n95
*1101 mult_50_n94
*1102 mult_50_n93
*1103 mult_50_n92
*1104 mult_50_n91
*1105 mult_50_n90
*1106 mult_50_n89
*1107 mult_50_n88
*1108 mult_50_n87
*1109 mult_50_n86
*1110 mult_50_n85
*1111 mult_50_n83
*1112 mult_50_n82
*1113 mult_50_n81
*1114 mult_50_n80
*1115 mult_50_n79
*1116 mult_50_n78
*1117 mult_50_n77
*1118 mult_50_n76
*1119 mult_50_n75
*1120 mult_50_n74
*1121 mult_50_n72
*1122 mult_50_n71
*1123 mult_50_n70
*1124 mult_50_n69
*1125 mult_50_n68
*1126 mult_50_n67
*1127 mult_50_n66
*1128 mult_50_n65
*1129 mult_50_n64
*1130 mult_50_n63
*1131 mult_50_n62
*1132 mult_50_n61
*1133 mult_50_n60
*1134 mult_50_n59
*1135 mult_50_n58
*1136 mult_50_n57
*1137 mult_50_n56
*1138 mult_50_n55
*1139 mult_50_n54
*1140 mult_50_n53
*1141 mult_50_n52
*1142 mult_50_n51
*1143 mult_50_n50
*1144 mult_50_n49
*1145 mult_50_n48
*1146 mult_50_n47
*1147 mult_50_n46
*1148 mult_50_n45
*1149 mult_50_n44
*1150 mult_50_n43
*1151 mult_50_n42
*1152 mult_50_n41
*1153 mult_50_n40
*1154 mult_50_n39
*1155 mult_50_n38
*1156 mult_50_n37
*1157 mult_50_n36
*1158 mult_50_n35
*1159 mult_50_n34
*1160 mult_50_n33
*1161 mult_50_n32
*1162 mult_50_n31
*1163 mult_50_n30
*1164 mult_50_n29
*1165 mult_50_n28
*1166 mult_50_n27
*1167 mult_50_n26
*1168 mult_50_n25
*1169 mult_50_n24
*1170 mult_50_n23
*1171 mult_50_n22
*1172 mult_50_n21
*1173 mult_50_n20
*1174 mult_50_n19
*1175 mult_50_n18
*1176 mult_50_n17
*1177 mult_50_n16
*1178 mult_50_n15
*1179 mult_50_n14
*1180 mult_50_n13
*1181 mult_50_n8
*1182 mult_50_n7
*1183 mult_50_n6
*1184 mult_50_n5
*1185 mult_50_n4
*1186 mult_50_n3
*1187 mult_50_n2
*1188 add_52_n2
*1189 TMPq2_c2[12]
*1190 TMPq2_c2[11]
*1191 TMPq2_c2[10]
*1192 TMPq2_c2[9]
*1193 TMPq2_c2[8]
*1194 TMPq2_c2[7]
*1195 TMPq2_c2[6]
*1196 TMP_reg1[6]
*1197 TMP_reg1[5]
*1198 TMP_reg1[4]
*1199 TMP_reg1[3]
*1200 TMP_reg1[2]
*1201 TMP_reg1[1]
*1202 TMP_reg1[0]
*1203 TMPa[6]
*1204 TMPa[5]
*1205 TMPa[4]
*1206 TMPa[3]
*1207 TMPa[2]
*1208 TMPa[1]
*1209 TMPa[0]
*1210 TMPq8_b0[13]
*1211 TMPq8_b0[12]
*1212 TMPq8_b0[11]
*1213 TMPq8_b0[10]
*1214 TMPq8_b0[9]
*1215 TMPq8_b0[8]
*1216 TMPq8_b0[7]
*1217 TMPq8_b0[6]
*1218 TMPq7_b1[13]
*1219 TMPq7_b1[12]
*1220 TMPq7_b1[11]
*1221 TMPq7_b1[10]
*1222 TMPq7_b1[9]
*1223 TMPq7_b1[8]
*1224 TMPq7_b1[7]
*1225 TMPq7_b1[6]
*1226 TMPq5_b2[13]
*1227 TMPq5_b2[12]
*1228 TMPq5_b2[11]
*1229 TMPq5_b2[10]
*1230 TMPq5_b2[9]
*1231 TMPq5_b2[8]
*1232 TMPq5_b2[7]
*1233 TMPq5_b2[6]
*1234 TMPb[7]
*1235 TMPb[6]
*1236 TMPb[5]
*1237 TMPb[4]
*1238 TMPb[3]
*1239 TMPb[2]
*1240 TMPb[1]
*1241 TMPb[0]
*1242 q_reg1[6]
*1243 q_reg1[5]
*1244 q_reg1[4]
*1245 q_reg1[3]
*1246 q_reg1[2]
*1247 q_reg1[1]
*1248 q_reg1[0]
*1249 q_reg2[6]
*1250 q_reg2[5]
*1251 q_reg2[4]
*1252 q_reg2[3]
*1253 q_reg2[2]
*1254 q_reg2[1]
*1255 q_reg2[0]
*1256 q_reg4[6]
*1257 q_reg4[5]
*1258 q_reg4[4]
*1259 q_reg4[3]
*1260 q_reg4[2]
*1261 q_reg4[1]
*1262 q_reg4[0]
*1263 q_reg3[6]
*1264 q_reg3[5]
*1265 q_reg3[4]
*1266 q_reg3[3]
*1267 q_reg3[2]
*1268 q_reg3[1]
*1269 q_reg3[0]
*1270 q_reg6[6]
*1271 q_reg6[5]
*1272 q_reg6[4]
*1273 q_reg6[3]
*1274 q_reg6[2]
*1275 q_reg6[1]
*1276 q_reg6[0]
*1277 q_reg5[6]
*1278 q_reg5[5]
*1279 q_reg5[4]
*1280 q_reg5[3]
*1281 q_reg5[2]
*1282 q_reg5[1]
*1283 q_reg5[0]
*1284 q_reg7[6]
*1285 q_reg7[5]
*1286 q_reg7[4]
*1287 q_reg7[3]
*1288 q_reg7[2]
*1289 q_reg7[1]
*1290 q_reg7[0]
*1291 q_reg8[6]
*1292 q_reg8[5]
*1293 q_reg8[4]
*1294 q_reg8[3]
*1295 q_reg8[2]
*1296 q_reg8[1]
*1297 q_reg8[0]
*1298 q_reg9[7]
*1299 q_reg9[6]
*1300 q_reg9[5]
*1301 q_reg9[4]
*1302 q_reg9[3]
*1303 q_reg9[2]
*1304 q_reg9[1]
*1305 q_reg9[0]
*1306 q_reg10[7]
*1307 q_reg10[6]
*1308 q_reg10[5]
*1309 q_reg10[4]
*1310 q_reg10[3]
*1311 q_reg10[2]
*1312 q_reg10[1]
*1313 q_reg10[0]
*1314 q_reg11[7]
*1315 q_reg11[6]
*1316 q_reg11[5]
*1317 q_reg11[4]
*1318 q_reg11[3]
*1319 q_reg11[2]
*1320 q_reg11[1]
*1321 q_reg11[0]
*1322 add_1_root_add_0_root_add_58_2_carry[7]
*1323 add_1_root_add_0_root_add_58_2_carry[6]
*1324 add_1_root_add_0_root_add_58_2_carry[5]
*1325 add_1_root_add_0_root_add_58_2_carry[4]
*1326 add_1_root_add_0_root_add_58_2_carry[3]
*1327 add_1_root_add_0_root_add_58_2_carry[2]
*1328 add_0_root_add_0_root_add_58_2_carry[7]
*1329 add_0_root_add_0_root_add_58_2_carry[6]
*1330 add_0_root_add_0_root_add_58_2_carry[5]
*1331 add_0_root_add_0_root_add_58_2_carry[4]
*1332 add_0_root_add_0_root_add_58_2_carry[3]
*1333 add_0_root_add_0_root_add_58_2_carry[2]
*1334 add_1_root_add_0_root_add_53_2_carry[6]
*1335 add_1_root_add_0_root_add_53_2_carry[5]
*1336 add_1_root_add_0_root_add_53_2_carry[4]
*1337 add_1_root_add_0_root_add_53_2_carry[3]
*1338 add_1_root_add_0_root_add_53_2_carry[2]
*1339 add_0_root_add_0_root_add_53_2_carry[6]
*1340 add_0_root_add_0_root_add_53_2_carry[5]
*1341 add_0_root_add_0_root_add_53_2_carry[4]
*1342 add_0_root_add_0_root_add_53_2_carry[3]
*1343 add_0_root_add_0_root_add_53_2_carry[2]
*1344 add_52_carry[6]
*1345 add_52_carry[5]
*1346 add_52_carry[4]
*1347 add_52_carry[3]
*1348 add_52_carry[2]
*1349 dout[0]
*1350 FE_OFC3_vin
*1351 FE_OFC2_vin
*1352 FE_OFC1_vin
*1353 FE_OFC0_rst_n
*1354 FE_RC_4_0
*1355 reg_1_U15
*1356 reg_1_U14
*1357 reg_1_U13
*1358 reg_1_U12
*1359 reg_1_U11
*1360 reg_1_U10
*1361 reg_1_U9
*1362 reg_1_U8
*1363 reg_1_U7
*1364 reg_1_U6
*1365 reg_1_U5
*1366 reg_1_U4
*1367 reg_1_U3
*1368 reg_1_U2
*1369 reg_1_Q_reg_0_
*1370 reg_1_Q_reg_1_
*1371 reg_1_Q_reg_2_
*1372 reg_1_Q_reg_3_
*1373 reg_1_Q_reg_4_
*1374 reg_1_Q_reg_5_
*1375 reg_1_Q_reg_6_
*1376 reg_2_U15
*1377 reg_2_U14
*1378 reg_2_U13
*1379 reg_2_U12
*1380 reg_2_U11
*1381 reg_2_U10
*1382 reg_2_U9
*1383 reg_2_U8
*1384 reg_2_U7
*1385 reg_2_U6
*1386 reg_2_U5
*1387 reg_2_U4
*1388 reg_2_U3
*1389 reg_2_U2
*1390 reg_2_Q_reg_0_
*1391 reg_2_Q_reg_1_
*1392 reg_2_Q_reg_2_
*1393 reg_2_Q_reg_3_
*1394 reg_2_Q_reg_4_
*1395 reg_2_Q_reg_5_
*1396 reg_2_Q_reg_6_
*1397 reg_3_U16
*1398 reg_3_U15
*1399 reg_3_U14
*1400 reg_3_U13
*1401 reg_3_U12
*1402 reg_3_U11
*1403 reg_3_U10
*1404 reg_3_U9
*1405 reg_3_U8
*1406 reg_3_U7
*1407 reg_3_U6
*1408 reg_3_U5
*1409 reg_3_U4
*1410 reg_3_U3
*1411 reg_3_Q_reg_0_
*1412 reg_3_Q_reg_1_
*1413 reg_3_Q_reg_2_
*1414 reg_3_Q_reg_3_
*1415 reg_3_Q_reg_4_
*1416 reg_3_Q_reg_5_
*1417 reg_3_Q_reg_6_
*1418 reg_4_U16
*1419 reg_4_U15
*1420 reg_4_U14
*1421 reg_4_U13
*1422 reg_4_U12
*1423 reg_4_U11
*1424 reg_4_U10
*1425 reg_4_U9
*1426 reg_4_U8
*1427 reg_4_U7
*1428 reg_4_U6
*1429 reg_4_U5
*1430 reg_4_U3
*1431 reg_4_U2
*1432 reg_4_Q_reg_0_
*1433 reg_4_Q_reg_1_
*1434 reg_4_Q_reg_2_
*1435 reg_4_Q_reg_3_
*1436 reg_4_Q_reg_4_
*1437 reg_4_Q_reg_5_
*1438 reg_4_Q_reg_6_
*1439 reg_5_U16
*1440 reg_5_U15
*1441 reg_5_U14
*1442 reg_5_U13
*1443 reg_5_U12
*1444 reg_5_U11
*1445 reg_5_U10
*1446 reg_5_U9
*1447 reg_5_U8
*1448 reg_5_U7
*1449 reg_5_U6
*1450 reg_5_U5
*1451 reg_5_U4
*1452 reg_5_U3
*1453 reg_5_Q_reg_0_
*1454 reg_5_Q_reg_1_
*1455 reg_5_Q_reg_2_
*1456 reg_5_Q_reg_3_
*1457 reg_5_Q_reg_4_
*1458 reg_5_Q_reg_5_
*1459 reg_5_Q_reg_6_
*1460 reg_6_U16
*1461 reg_6_U15
*1462 reg_6_U14
*1463 reg_6_U13
*1464 reg_6_U12
*1465 reg_6_U11
*1466 reg_6_U10
*1467 reg_6_U9
*1468 reg_6_U8
*1469 reg_6_U7
*1470 reg_6_U6
*1471 reg_6_U5
*1472 reg_6_U4
*1473 reg_6_U3
*1474 reg_6_Q_reg_0_
*1475 reg_6_Q_reg_1_
*1476 reg_6_Q_reg_2_
*1477 reg_6_Q_reg_3_
*1478 reg_6_Q_reg_4_
*1479 reg_6_Q_reg_5_
*1480 reg_6_Q_reg_6_
*1481 reg_7_U16
*1482 reg_7_U15
*1483 reg_7_U14
*1484 reg_7_U13
*1485 reg_7_U12
*1486 reg_7_U11
*1487 reg_7_U10
*1488 reg_7_U9
*1489 reg_7_U8
*1490 reg_7_U7
*1491 reg_7_U6
*1492 reg_7_U5
*1493 reg_7_U4
*1494 reg_7_U3
*1495 reg_7_Q_reg_0_
*1496 reg_7_Q_reg_1_
*1497 reg_7_Q_reg_2_
*1498 reg_7_Q_reg_3_
*1499 reg_7_Q_reg_4_
*1500 reg_7_Q_reg_5_
*1501 reg_7_Q_reg_6_
*1502 reg_8_U16
*1503 reg_8_U15
*1504 reg_8_U14
*1505 reg_8_U13
*1506 reg_8_U12
*1507 reg_8_U11
*1508 reg_8_U10
*1509 reg_8_U9
*1510 reg_8_U8
*1511 reg_8_U7
*1512 reg_8_U6
*1513 reg_8_U5
*1514 reg_8_U3
*1515 reg_8_U2
*1516 reg_8_Q_reg_0_
*1517 reg_8_Q_reg_1_
*1518 reg_8_Q_reg_2_
*1519 reg_8_Q_reg_3_
*1520 reg_8_Q_reg_4_
*1521 reg_8_Q_reg_5_
*1522 reg_8_Q_reg_6_
*1523 reg_9_U17
*1524 reg_9_U16
*1525 reg_9_U15
*1526 reg_9_U14
*1527 reg_9_U13
*1528 reg_9_U12
*1529 reg_9_U11
*1530 reg_9_U10
*1531 reg_9_U9
*1532 reg_9_U8
*1533 reg_9_U7
*1534 reg_9_U6
*1535 reg_9_U5
*1536 reg_9_U4
*1537 reg_9_U3
*1538 reg_9_U2
*1539 reg_9_Q_reg_0_
*1540 reg_9_Q_reg_1_
*1541 reg_9_Q_reg_2_
*1542 reg_9_Q_reg_3_
*1543 reg_9_Q_reg_4_
*1544 reg_9_Q_reg_5_
*1545 reg_9_Q_reg_6_
*1546 reg_9_Q_reg_7_
*1547 reg_10_U17
*1548 reg_10_U16
*1549 reg_10_U15
*1550 reg_10_U14
*1551 reg_10_U13
*1552 reg_10_U12
*1553 reg_10_U11
*1554 reg_10_U10
*1555 reg_10_U9
*1556 reg_10_U8
*1557 reg_10_U7
*1558 reg_10_U6
*1559 reg_10_U5
*1560 reg_10_U4
*1561 reg_10_U3
*1562 reg_10_U2
*1563 reg_10_Q_reg_0_
*1564 reg_10_Q_reg_1_
*1565 reg_10_Q_reg_2_
*1566 reg_10_Q_reg_3_
*1567 reg_10_Q_reg_4_
*1568 reg_10_Q_reg_5_
*1569 reg_10_Q_reg_6_
*1570 reg_10_Q_reg_7_
*1571 reg_11_U17
*1572 reg_11_U16
*1573 reg_11_U15
*1574 reg_11_U14
*1575 reg_11_U13
*1576 reg_11_U12
*1577 reg_11_U11
*1578 reg_11_U10
*1579 reg_11_U9
*1580 reg_11_U8
*1581 reg_11_U7
*1582 reg_11_U6
*1583 reg_11_U5
*1584 reg_11_U4
*1585 reg_11_U3
*1586 reg_11_U2
*1587 reg_11_Q_reg_0_
*1588 reg_11_Q_reg_1_
*1589 reg_11_Q_reg_2_
*1590 reg_11_Q_reg_3_
*1591 reg_11_Q_reg_4_
*1592 reg_11_Q_reg_5_
*1593 reg_11_Q_reg_6_
*1594 reg_11_Q_reg_7_
*1595 ff_1_U3
*1596 ff_1_Q_reg
*1597 ff_2_Q_reg
*1598 ff_3_Q_reg
*1599 reg_dout_U19
*1600 reg_dout_U18
*1601 reg_dout_U17
*1602 reg_dout_U16
*1603 reg_dout_U15
*1604 reg_dout_U14
*1605 reg_dout_U12
*1606 reg_dout_U11
*1607 reg_dout_U10
*1608 reg_dout_U9
*1609 reg_dout_U8
*1610 reg_dout_U7
*1611 reg_dout_U6
*1612 reg_dout_U5
*1613 reg_dout_U4
*1614 reg_dout_U3
*1615 reg_dout_Q_reg_0_
*1616 reg_dout_Q_reg_1_
*1617 reg_dout_Q_reg_2_
*1618 reg_dout_Q_reg_3_
*1619 reg_dout_Q_reg_4_
*1620 reg_dout_Q_reg_5_
*1621 reg_dout_Q_reg_6_
*1622 reg_dout_Q_reg_7_
*1623 add_1_root_add_0_root_add_58_2_U2
*1624 add_1_root_add_0_root_add_58_2_U1
*1625 add_1_root_add_0_root_add_58_2_U1_1
*1626 add_1_root_add_0_root_add_58_2_U1_2
*1627 add_1_root_add_0_root_add_58_2_U1_3
*1628 add_1_root_add_0_root_add_58_2_U1_4
*1629 add_1_root_add_0_root_add_58_2_U1_5
*1630 add_1_root_add_0_root_add_58_2_U1_6
*1631 add_1_root_add_0_root_add_58_2_U1_7
*1632 add_0_root_add_0_root_add_58_2_U2
*1633 add_0_root_add_0_root_add_58_2_U1
*1634 add_0_root_add_0_root_add_58_2_U1_1
*1635 add_0_root_add_0_root_add_58_2_U1_2
*1636 add_0_root_add_0_root_add_58_2_U1_3
*1637 add_0_root_add_0_root_add_58_2_U1_4
*1638 add_0_root_add_0_root_add_58_2_U1_5
*1639 add_0_root_add_0_root_add_58_2_U1_6
*1640 add_0_root_add_0_root_add_58_2_U1_7
*1641 mult_57_U178
*1642 mult_57_U177
*1643 mult_57_U176
*1644 mult_57_U175
*1645 mult_57_U174
*1646 mult_57_U173
*1647 mult_57_U172
*1648 mult_57_U171
*1649 mult_57_U170
*1650 mult_57_U169
*1651 mult_57_U168
*1652 mult_57_U167
*1653 mult_57_U166
*1654 mult_57_U165
*1655 mult_57_U164
*1656 mult_57_U163
*1657 mult_57_U162
*1658 mult_57_U161
*1659 mult_57_U160
*1660 mult_57_U159
*1661 mult_57_U158
*1662 mult_57_U157
*1663 mult_57_U156
*1664 mult_57_U155
*1665 mult_57_U154
*1666 mult_57_U153
*1667 mult_57_U152
*1668 mult_57_U151
*1669 mult_57_U150
*1670 mult_57_U149
*1671 mult_57_U148
*1672 mult_57_U147
*1673 mult_57_U146
*1674 mult_57_U145
*1675 mult_57_U144
*1676 mult_57_U143
*1677 mult_57_U142
*1678 mult_57_U141
*1679 mult_57_U140
*1680 mult_57_U139
*1681 mult_57_U138
*1682 mult_57_U137
*1683 mult_57_U136
*1684 mult_57_U135
*1685 mult_57_U134
*1686 mult_57_U133
*1687 mult_57_U132
*1688 mult_57_U131
*1689 mult_57_U130
*1690 mult_57_U129
*1691 mult_57_U128
*1692 mult_57_U127
*1693 mult_57_U126
*1694 mult_57_U125
*1695 mult_57_U124
*1696 mult_57_U123
*1697 mult_57_U122
*1698 mult_57_U121
*1699 mult_57_U120
*1700 mult_57_U119