*SPEF "IEEE 1481-1998"
*DESIGN "iir_filter"
*DATE "Mon Nov 15 19:51:38 2021"
*VENDOR "Cadence Design Systems, Inc."
*PROGRAM "Innovus"
*VERSION "17.11-s080_1"
*DESIGN_FLOW "COUPLING C" "PIN_CAP NONE" "NAME_SCOPE LOCAL"
*DIVIDER /
*DELIMITER :
*BUS_DELIMITER []
*T_UNIT 1 NS
*C_UNIT 1 PF
*R_UNIT 1 OHM
*L_UNIT 1 HENRY

// MMMC spef file for corner 'my_rc'

*NAME_MAP

*1 FE_DBTN5_q_reg2_0
*2 FE_DBTN4_q_reg2_1
*3 FE_DBTN3_q_reg2_2
*4 FE_DBTN2_q_reg2_3
*5 FE_DBTN1_q_reg2_4
*6 FE_DBTN0_q_reg2_5
*7 din[8]
*8 din[7]
*9 din[6]
*10 din[5]
*11 din[4]
*12 din[3]
*13 din[2]
*14 din[1]
*15 din[0]
*16 a1[8]
*17 a1[7]
*18 a1[6]
*19 a1[5]
*20 a1[4]
*21 a1[3]
*22 a1[2]
*23 a1[1]
*24 a1[0]
*25 c2[8]
*26 c2[7]
*27 c2[6]
*28 c2[5]
*29 c2[4]
*30 c2[3]
*31 c2[2]
*32 c2[1]
*33 c2[0]
*34 c3[8]
*35 c3[7]
*36 c3[6]
*37 c3[5]
*38 c3[4]
*39 c3[3]
*40 c3[2]
*41 c3[1]
*42 c3[0]
*43 b0[8]
*44 b0[7]
*45 b0[6]
*46 b0[5]
*47 b0[4]
*48 b0[3]
*49 b0[2]
*50 b0[1]
*51 b0[0]
*52 b1[8]
*53 b1[7]
*54 b1[6]
*55 b1[5]
*56 b1[4]
*57 b1[3]
*58 b1[2]
*59 b1[1]
*60 b1[0]
*61 b2[8]
*62 b2[7]
*63 b2[6]
*64 b2[5]
*65 b2[4]
*66 b2[3]
*67 b2[2]
*68 b2[1]
*69 b2[0]
*70 dout[8]
*71 dout[7]
*72 dout[6]
*73 dout[5]
*74 dout[4]
*75 dout[3]
*76 dout[2]
*77 dout[1]
*78 clock
*79 rst_n
*80 vin
*81 vout
*82 TMPtmpa_b0_9_
*83 TMPtmpa_b0_8_
*84 TMPtmpa_b0_7_
*85 TMPtmpa_b0_6_
*86 TMPtmpa_b0_13_
*87 TMPtmpa_b0_12_
*88 TMPtmpa_b0_11_
*89 TMPtmpa_b0_10_
*90 TMPq2_b2_9_
*91 TMPq2_b2_8_
*92 TMPq2_b2_7_
*93 TMPq2_b2_6_
*94 TMPq2_b2_13_
*95 TMPq2_b2_12_
*96 TMPq2_b2_11_
*97 TMPq2_b2_10_
*98 TMPq1_b1_9_
*99 TMPq1_b1_8_
*100 TMPq1_b1_7_
*101 TMPq1_b1_6_
*102 TMPq1_b1_13_
*103 TMPq1_b1_12_
*104 TMPq1_b1_11_
*105 TMPq1_b1_10_
*106 N21
*107 N20
*108 N19
*109 N18
*110 N17
*111 N16
*112 N15
*113 N14
*114 TMPqx_a1_9_
*115 TMPqx_a1_8_
*116 TMPqx_a1_7_
*117 TMPqx_a1_6_
*118 TMPqx_a1_12_
*119 TMPqx_a1_11_
*120 TMPqx_a1_10_
*121 TMPq3_c3_9_
*122 TMPq3_c3_8_
*123 TMPq3_c3_7_
*124 TMPq3_c3_6_
*125 TMPq3_c3_12_
*126 TMPq3_c3_11_
*127 TMPq3_c3_10_
*128 TMPq2_c2_9_
*129 TMPq2_c2_8_
*130 TMPq2_c2_7_
*131 TMPq2_c2_6_
*132 TMPq2_c2_12_
*133 TMPq2_c2_11_
*134 TMPq2_c2_10_
*135 N9
*136 N8
*137 N7
*138 N6
*139 N5
*140 N4
*141 N3
*142 N2
*143 N13
*144 N12
*145 N11
*146 N10
*147 N1
*148 N0
*149 reg_x_n21
*150 reg_x_n20
*151 reg_x_n19
*152 reg_x_n18
*153 reg_x_n17
*154 reg_x_n16
*155 reg_x_n15
*156 reg_x_n14
*157 reg_x_n13
*158 reg_x_n12
*159 reg_x_n11
*160 reg_x_n10
*161 reg_x_n9
*162 reg_x_n8
*163 reg_x_n7
*164 reg_x_n6
*165 reg_x_n5
*166 reg_x_n4
*167 reg_x_n3
*168 reg_x_n2
*169 reg_x_n1
*170 reg_1_n44
*171 reg_1_n43
*172 reg_1_n42
*173 reg_1_n41
*174 reg_1_n40
*175 reg_1_n39
*176 reg_1_n38
*177 reg_1_n37
*178 reg_1_n36
*179 reg_1_n35
*180 reg_1_n34
*181 reg_1_n33
*182 reg_1_n32
*183 reg_1_n31
*184 reg_1_n30
*185 reg_1_n29
*186 reg_1_n28
*187 reg_1_n27
*188 reg_1_n26
*189 reg_1_n25
*190 reg_1_n24
*191 reg_2_n44
*192 reg_2_n43
*193 reg_2_n42
*194 reg_2_n41
*195 reg_2_n40
*196 reg_2_n39
*197 reg_2_n38
*198 reg_2_n37
*199 reg_2_n36
*200 reg_2_n35
*201 reg_2_n34
*202 reg_2_n33
*203 reg_2_n32
*204 reg_2_n31
*205 reg_2_n30
*206 reg_2_n29
*207 reg_2_n28
*208 reg_2_n27
*209 reg_2_n26
*210 reg_2_n25
*211 reg_2_n24
*212 reg_3_n44
*213 reg_3_n43
*214 reg_3_n42
*215 reg_3_n41
*216 reg_3_n40
*217 reg_3_n39
*218 reg_3_n38
*219 reg_3_n37
*220 reg_3_n36
*221 reg_3_n35
*222 reg_3_n34
*223 reg_3_n33
*224 reg_3_n32
*225 reg_3_n31
*226 reg_3_n30
*227 reg_3_n29
*228 reg_3_n28
*229 reg_3_n27
*230 reg_3_n26
*231 reg_3_n25
*232 reg_3_n24
*233 reg_dout_n24
*234 reg_dout_n23
*235 reg_dout_n22
*236 reg_dout_n21
*237 reg_dout_n20
*238 reg_dout_n19
*239 reg_dout_n18
*240 reg_dout_n17
*241 reg_dout_n16
*242 reg_dout_n15
*243 reg_dout_n14
*244 reg_dout_n13
*245 reg_dout_n12
*246 reg_dout_n11
*247 reg_dout_n10
*248 reg_dout_n9
*249 reg_dout_n8
*250 reg_dout_n7
*251 reg_dout_n6
*252 reg_dout_n5
*253 reg_dout_n4
*254 reg_dout_n3
*255 reg_dout_n2
*256 reg_dout_n1
*257 ff_1_n3
*258 ff_1_n2
*259 mult_50_n184
*260 mult_50_n183
*261 mult_50_n182
*262 mult_50_n181
*263 mult_50_n180
*264 mult_50_n179
*265 mult_50_n178
*266 mult_50_n177
*267 mult_50_n176
*268 mult_50_n175
*269 mult_50_n174
*270 mult_50_n173
*271 mult_50_n172
*272 mult_50_n171
*273 mult_50_n170
*274 mult_50_n169
*275 mult_50_n168
*276 mult_50_n167
*277 mult_50_n166
*278 mult_50_n165
*279 mult_50_n164
*280 mult_50_n163
*281 mult_50_n162
*282 mult_50_n119
*283 mult_50_n118
*284 mult_50_n117
*285 mult_50_n116
*286 mult_50_n115
*287 mult_50_n113
*288 mult_50_n112
*289 mult_50_n111
*290 mult_50_n110
*291 mult_50_n109
*292 mult_50_n108
*293 mult_50_n106
*294 mult_50_n105
*295 mult_50_n104
*296 mult_50_n103
*297 mult_50_n102
*298 mult_50_n101
*299 mult_50_n100
*300 mult_50_n99
*301 mult_50_n98
*302 mult_50_n97
*303 mult_50_n95
*304 mult_50_n94
*305 mult_50_n93
*306 mult_50_n92
*307 mult_50_n91
*308 mult_50_n90
*309 mult_50_n89
*310 mult_50_n88
*311 mult_50_n87
*312 mult_50_n86
*313 mult_50_n85
*314 mult_50_n83
*315 mult_50_n82
*316 mult_50_n81
*317 mult_50_n80
*318 mult_50_n79
*319 mult_50_n78
*320 mult_50_n77
*321 mult_50_n76
*322 mult_50_n75
*323 mult_50_n74
*324 mult_50_n73
*325 mult_50_n72
*326 mult_50_n71
*327 mult_50_n70
*328 mult_50_n69
*329 mult_50_n68
*330 mult_50_n67
*331 mult_50_n66
*332 mult_50_n65
*333 mult_50_n64
*334 mult_50_n63
*335 mult_50_n62
*336 mult_50_n61
*337 mult_50_n60
*338 mult_50_n59
*339 mult_50_n58
*340 mult_50_n57
*341 mult_50_n56
*342 mult_50_n55
*343 mult_50_n54
*344 mult_50_n53
*345 mult_50_n52
*346 mult_50_n51
*347 mult_50_n50
*348 mult_50_n49
*349 mult_50_n48
*350 mult_50_n47
*351 mult_50_n46
*352 mult_50_n45
*353 mult_50_n44
*354 mult_50_n43
*355 mult_50_n42
*356 mult_50_n41
*357 mult_50_n40
*358 mult_50_n39
*359 mult_50_n38
*360 mult_50_n37
*361 mult_50_n36
*362 mult_50_n35
*363 mult_50_n34
*364 mult_50_n33
*365 mult_50_n32
*366 mult_50_n31
*367 mult_50_n30
*368 mult_50_n29
*369 mult_50_n28
*370 mult_50_n27
*371 mult_50_n26
*372 mult_50_n25
*373 mult_50_n24
*374 mult_50_n23
*375 mult_50_n22
*376 mult_50_n21
*377 mult_50_n20
*378 mult_50_n19
*379 mult_50_n18
*380 mult_50_n17
*381 mult_50_n16
*382 mult_50_n15
*383 mult_50_n14
*384 mult_50_n13
*385 mult_50_n8
*386 mult_50_n7
*387 mult_50_n6
*388 mult_50_n5
*389 mult_50_n4
*390 mult_50_n3
*391 mult_50_n2
*392 mult_50_n1
*393 mult_51_n184
*394 mult_51_n183
*395 mult_51_n182
*396 mult_51_n181
*397 mult_51_n180
*398 mult_51_n179
*399 mult_51_n178
*400 mult_51_n177
*401 mult_51_n176
*402 mult_51_n175
*403 mult_51_n174
*404 mult_51_n173
*405 mult_51_n172
*406 mult_51_n171
*407 mult_51_n170
*408 mult_51_n169
*409 mult_51_n168
*410 mult_51_n167
*411 mult_51_n166
*412 mult_51_n165
*413 mult_51_n164
*414 mult_51_n163
*415 mult_51_n162
*416 mult_51_n119
*417 mult_51_n118
*418 mult_51_n117
*419 mult_51_n116
*420 mult_51_n115
*421 mult_51_n113
*422 mult_51_n112
*423 mult_51_n111
*424 mult_51_n110
*425 mult_51_n109
*426 mult_51_n108
*427 mult_51_n106
*428 mult_51_n105
*429 mult_51_n104
*430 mult_51_n103
*431 mult_51_n102
*432 mult_51_n101
*433 mult_51_n100
*434 mult_51_n99
*435 mult_51_n98
*436 mult_51_n97
*437 mult_51_n95
*438 mult_51_n94
*439 mult_51_n93
*440 mult_51_n92
*441 mult_51_n91
*442 mult_51_n90
*443 mult_51_n89
*444 mult_51_n88
*445 mult_51_n87
*446 mult_51_n86
*447 mult_51_n85
*448 mult_51_n83
*449 mult_51_n82
*450 mult_51_n81
*451 mult_51_n80
*452 mult_51_n79
*453 mult_51_n78
*454 mult_51_n77
*455 mult_51_n76
*456 mult_51_n75
*457 mult_51_n74
*458 mult_51_n73
*459 mult_51_n72
*460 mult_51_n71
*461 mult_51_n70
*462 mult_51_n69
*463 mult_51_n68
*464 mult_51_n67
*465 mult_51_n66
*466 mult_51_n65
*467 mult_51_n64
*468 mult_51_n63
*469 mult_51_n62
*470 mult_51_n61
*471 mult_51_n60
*472 mult_51_n59
*473 mult_51_n58
*474 mult_51_n57
*475 mult_51_n56
*476 mult_51_n55
*477 mult_51_n54
*478 mult_51_n53
*479 mult_51_n52
*480 mult_51_n51
*481 mult_51_n50
*482 mult_51_n49
*483 mult_51_n48
*484 mult_51_n47
*485 mult_51_n46
*486 mult_51_n45
*487 mult_51_n44
*488 mult_51_n43
*489 mult_51_n42
*490 mult_51_n41
*491 mult_51_n40
*492 mult_51_n39
*493 mult_51_n38
*494 mult_51_n37
*495 mult_51_n36
*496 mult_51_n35
*497 mult_51_n34
*498 mult_51_n33
*499 mult_51_n32
*500 mult_51_n31
*501 mult_51_n30
*502 mult_51_n29
*503 mult_51_n28
*504 mult_51_n27
*505 mult_51_n26
*506 mult_51_n25
*507 mult_51_n24
*508 mult_51_n23
*509 mult_51_n22
*510 mult_51_n21
*511 mult_51_n20
*512 mult_51_n19
*513 mult_51_n18
*514 mult_51_n17
*515 mult_51_n16
*516 mult_51_n15
*517 mult_51_n14
*518 mult_51_n13
*519 mult_51_n8
*520 mult_51_n7
*521 mult_51_n6
*522 mult_51_n5
*523 mult_51_n4
*524 mult_51_n3
*525 mult_51_n2
*526 mult_51_n1
*527 mult_52_n184
*528 mult_52_n183
*529 mult_52_n182
*530 mult_52_n181
*531 mult_52_n180
*532 mult_52_n179
*533 mult_52_n178
*534 mult_52_n177
*535 mult_52_n176
*536 mult_52_n175
*537 mult_52_n174
*538 mult_52_n173
*539 mult_52_n172
*540 mult_52_n169
*541 mult_52_n166
*542 mult_52_n164
*543 mult_52_n162
*544 mult_52_n119
*545 mult_52_n118
*546 mult_52_n117
*547 mult_52_n116
*548 mult_52_n115
*549 mult_52_n113
*550 mult_52_n112
*551 mult_52_n111
*552 mult_52_n110
*553 mult_52_n109
*554 mult_52_n108
*555 mult_52_n106
*556 mult_52_n105
*557 mult_52_n104
*558 mult_52_n103
*559 mult_52_n102
*560 mult_52_n101
*561 mult_52_n100
*562 mult_52_n99
*563 mult_52_n98
*564 mult_52_n97
*565 mult_52_n95
*566 mult_52_n94
*567 mult_52_n93
*568 mult_52_n92
*569 mult_52_n91
*570 mult_52_n90
*571 mult_52_n89
*572 mult_52_n88
*573 mult_52_n87
*574 mult_52_n86
*575 mult_52_n85
*576 mult_52_n83
*577 mult_52_n82
*578 mult_52_n81
*579 mult_52_n80
*580 mult_52_n79
*581 mult_52_n78
*582 mult_52_n77
*583 mult_52_n76
*584 mult_52_n75
*585 mult_52_n74
*586 mult_52_n73
*587 mult_52_n72
*588 mult_52_n71
*589 mult_52_n70
*590 mult_52_n69
*591 mult_52_n68
*592 mult_52_n67
*593 mult_52_n66
*594 mult_52_n65
*595 mult_52_n64
*596 mult_52_n63
*597 mult_52_n62
*598 mult_52_n61
*599 mult_52_n60
*600 mult_52_n59
*601 mult_52_n58
*602 mult_52_n57
*603 mult_52_n56
*604 mult_52_n55
*605 mult_52_n54
*606 mult_52_n53
*607 mult_52_n52
*608 mult_52_n51
*609 mult_52_n50
*610 mult_52_n49
*611 mult_52_n48
*612 mult_52_n47
*613 mult_52_n46
*614 mult_52_n45
*615 mult_52_n44
*616 mult_52_n43
*617 mult_52_n42
*618 mult_52_n41
*619 mult_52_n40
*620 mult_52_n39
*621 mult_52_n38
*622 mult_52_n37
*623 mult_52_n36
*624 mult_52_n35
*625 mult_52_n34
*626 mult_52_n33
*627 mult_52_n32
*628 mult_52_n31
*629 mult_52_n30
*630 mult_52_n29
*631 mult_52_n28
*632 mult_52_n27
*633 mult_52_n26
*634 mult_52_n25
*635 mult_52_n24
*636 mult_52_n23
*637 mult_52_n22
*638 mult_52_n21
*639 mult_52_n20
*640 mult_52_n19
*641 mult_52_n18
*642 mult_52_n17
*643 mult_52_n16
*644 mult_52_n15
*645 mult_52_n14
*646 mult_52_n13
*647 mult_52_n8
*648 mult_52_n7
*649 mult_52_n6
*650 mult_52_n5
*651 mult_52_n4
*652 mult_52_n3
*653 mult_52_n2
*654 mult_52_n1
*655 add_1_root_add_0_root_add_54_2_n1
*656 add_0_root_add_0_root_add_54_2_n2
*657 mult_47_n184
*658 mult_47_n183
*659 mult_47_n182
*660 mult_47_n181
*661 mult_47_n180
*662 mult_47_n179
*663 mult_47_n178
*664 mult_47_n177
*665 mult_47_n176
*666 mult_47_n175
*667 mult_47_n174
*668 mult_47_n173
*669 mult_47_n172
*670 mult_47_n171
*671 mult_47_n170
*672 mult_47_n169
*673 mult_47_n168
*674 mult_47_n167
*675 mult_47_n166
*676 mult_47_n165
*677 mult_47_n164
*678 mult_47_n163
*679 mult_47_n162
*680 mult_47_n161
*681 mult_47_n160
*682 mult_47_n119
*683 mult_47_n118
*684 mult_47_n117
*685 mult_47_n116
*686 mult_47_n115
*687 mult_47_n113
*688 mult_47_n112
*689 mult_47_n111
*690 mult_47_n110
*691 mult_47_n109
*692 mult_47_n108
*693 mult_47_n106
*694 mult_47_n105
*695 mult_47_n104
*696 mult_47_n103
*697 mult_47_n102
*698 mult_47_n101
*699 mult_47_n100
*700 mult_47_n99
*701 mult_47_n98
*702 mult_47_n97
*703 mult_47_n95
*704 mult_47_n94
*705 mult_47_n93
*706 mult_47_n92
*707 mult_47_n91
*708 mult_47_n90
*709 mult_47_n89
*710 mult_47_n88
*711 mult_47_n87
*712 mult_47_n86
*713 mult_47_n85
*714 mult_47_n83
*715 mult_47_n82
*716 mult_47_n81
*717 mult_47_n80
*718 mult_47_n79
*719 mult_47_n78
*720 mult_47_n77
*721 mult_47_n76
*722 mult_47_n75
*723 mult_47_n74
*724 mult_47_n72
*725 mult_47_n71
*726 mult_47_n70
*727 mult_47_n69
*728 mult_47_n68
*729 mult_47_n67
*730 mult_47_n66
*731 mult_47_n65
*732 mult_47_n64
*733 mult_47_n63
*734 mult_47_n62
*735 mult_47_n61
*736 mult_47_n60
*737 mult_47_n59
*738 mult_47_n58
*739 mult_47_n57
*740 mult_47_n56
*741 mult_47_n55
*742 mult_47_n54
*743 mult_47_n53
*744 mult_47_n52
*745 mult_47_n51
*746 mult_47_n50
*747 mult_47_n49
*748 mult_47_n48
*749 mult_47_n47
*750 mult_47_n46
*751 mult_47_n45
*752 mult_47_n44
*753 mult_47_n43
*754 mult_47_n42
*755 mult_47_n41
*756 mult_47_n40
*757 mult_47_n39
*758 mult_47_n38
*759 mult_47_n37
*760 mult_47_n36
*761 mult_47_n35
*762 mult_47_n34
*763 mult_47_n33
*764 mult_47_n32
*765 mult_47_n31
*766 mult_47_n30
*767 mult_47_n29
*768 mult_47_n28
*769 mult_47_n27
*770 mult_47_n26
*771 mult_47_n25
*772 mult_47_n24
*773 mult_47_n23
*774 mult_47_n22
*775 mult_47_n21
*776 mult_47_n20
*777 mult_47_n19
*778 mult_47_n18
*779 mult_47_n17
*780 mult_47_n16
*781 mult_47_n15
*782 mult_47_n14
*783 mult_47_n13
*784 mult_47_n8
*785 mult_47_n7
*786 mult_47_n6
*787 mult_47_n5
*788 mult_47_n4
*789 mult_47_n3
*790 mult_47_n2
*791 mult_45_n184
*792 mult_45_n183
*793 mult_45_n182
*794 mult_45_n181
*795 mult_45_n180
*796 mult_45_n179
*797 mult_45_n178
*798 mult_45_n177
*799 mult_45_n176
*800 mult_45_n175
*801 mult_45_n174
*802 mult_45_n173
*803 mult_45_n172
*804 mult_45_n171
*805 mult_45_n170
*806 mult_45_n167
*807 mult_45_n164
*808 mult_45_n162
*809 mult_45_n160
*810 mult_45_n119
*811 mult_45_n118
*812 mult_45_n117
*813 mult_45_n116
*814 mult_45_n115
*815 mult_45_n113
*816 mult_45_n112
*817 mult_45_n111
*818 mult_45_n110
*819 mult_45_n109
*820 mult_45_n108
*821 mult_45_n106
*822 mult_45_n105
*823 mult_45_n104
*824 mult_45_n103
*825 mult_45_n102
*826 mult_45_n101
*827 mult_45_n100
*828 mult_45_n99
*829 mult_45_n98
*830 mult_45_n97
*831 mult_45_n95
*832 mult_45_n94
*833 mult_45_n93
*834 mult_45_n92
*835 mult_45_n91
*836 mult_45_n90
*837 mult_45_n89
*838 mult_45_n88
*839 mult_45_n87
*840 mult_45_n86
*841 mult_45_n85
*842 mult_45_n83
*843 mult_45_n82
*844 mult_45_n81
*845 mult_45_n80
*846 mult_45_n79
*847 mult_45_n78
*848 mult_45_n77
*849 mult_45_n76
*850 mult_45_n75
*851 mult_45_n74
*852 mult_45_n72
*853 mult_45_n71
*854 mult_45_n70
*855 mult_45_n69
*856 mult_45_n68
*857 mult_45_n67
*858 mult_45_n66
*859 mult_45_n65
*860 mult_45_n64
*861 mult_45_n63
*862 mult_45_n62
*863 mult_45_n61
*864 mult_45_n60
*865 mult_45_n59
*866 mult_45_n58
*867 mult_45_n57
*868 mult_45_n56
*869 mult_45_n55
*870 mult_45_n54
*871 mult_45_n53
*872 mult_45_n52
*873 mult_45_n51
*874 mult_45_n50
*875 mult_45_n49
*876 mult_45_n48
*877 mult_45_n47
*878 mult_45_n46
*879 mult_45_n45
*880 mult_45_n44
*881 mult_45_n43
*882 mult_45_n42
*883 mult_45_n41
*884 mult_45_n40
*885 mult_45_n39
*886 mult_45_n38
*887 mult_45_n37
*888 mult_45_n36
*889 mult_45_n35
*890 mult_45_n34
*891 mult_45_n33
*892 mult_45_n32
*893 mult_45_n31
*894 mult_45_n30
*895 mult_45_n29
*896 mult_45_n28
*897 mult_45_n27
*898 mult_45_n26
*899 mult_45_n25
*900 mult_45_n24
*901 mult_45_n23
*902 mult_45_n22
*903 mult_45_n21
*904 mult_45_n20
*905 mult_45_n19
*906 mult_45_n18
*907 mult_45_n17
*908 mult_45_n16
*909 mult_45_n15
*910 mult_45_n14
*911 mult_45_n13
*912 mult_45_n8
*913 mult_45_n7
*914 mult_45_n6
*915 mult_45_n5
*916 mult_45_n4
*917 mult_45_n3
*918 mult_45_n2
*919 add_1_root_add_0_root_add_48_3_n2
*920 mult_46_n184
*921 mult_46_n183
*922 mult_46_n182
*923 mult_46_n181
*924 mult_46_n180
*925 mult_46_n179
*926 mult_46_n178
*927 mult_46_n177
*928 mult_46_n176
*929 mult_46_n175
*930 mult_46_n174
*931 mult_46_n173
*932 mult_46_n172
*933 mult_46_n171
*934 mult_46_n170
*935 mult_46_n169
*936 mult_46_n168
*937 mult_46_n167
*938 mult_46_n166
*939 mult_46_n165
*940 mult_46_n164
*941 mult_46_n163
*942 mult_46_n162
*943 mult_46_n161
*944 mult_46_n160
*945 mult_46_n119
*946 mult_46_n118
*947 mult_46_n117
*948 mult_46_n116
*949 mult_46_n115
*950 mult_46_n113
*951 mult_46_n112
*952 mult_46_n111
*953 mult_46_n110
*954 mult_46_n109
*955 mult_46_n108
*956 mult_46_n106
*957 mult_46_n105
*958 mult_46_n104
*959 mult_46_n103
*960 mult_46_n102
*961 mult_46_n101
*962 mult_46_n100
*963 mult_46_n99
*964 mult_46_n98
*965 mult_46_n97
*966 mult_46_n95
*967 mult_46_n94
*968 mult_46_n93
*969 mult_46_n92
*970 mult_46_n91
*971 mult_46_n90
*972 mult_46_n89
*973 mult_46_n88
*974 mult_46_n87
*975 mult_46_n86
*976 mult_46_n85
*977 mult_46_n83
*978 mult_46_n82
*979 mult_46_n81
*980 mult_46_n80
*981 mult_46_n79
*982 mult_46_n78
*983 mult_46_n77
*984 mult_46_n76
*985 mult_46_n75
*986 mult_46_n74
*987 mult_46_n72
*988 mult_46_n71
*989 mult_46_n70
*990 mult_46_n69
*991 mult_46_n68
*992 mult_46_n67
*993 mult_46_n66
*994 mult_46_n65
*995 mult_46_n64
*996 mult_46_n63
*997 mult_46_n62
*998 mult_46_n61
*999 mult_46_n60
*1000 mult_46_n59
*1001 mult_46_n58
*1002 mult_46_n57
*1003 mult_46_n56
*1004 mult_46_n55
*1005 mult_46_n54
*1006 mult_46_n53
*1007 mult_46_n52
*1008 mult_46_n51
*1009 mult_46_n50
*1010 mult_46_n49
*1011 mult_46_n48
*1012 mult_46_n47
*1013 mult_46_n46
*1014 mult_46_n45
*1015 mult_46_n44
*1016 mult_46_n43
*1017 mult_46_n42
*1018 mult_46_n41
*1019 mult_46_n40
*1020 mult_46_n39
*1021 mult_46_n38
*1022 mult_46_n37
*1023 mult_46_n36
*1024 mult_46_n35
*1025 mult_46_n34
*1026 mult_46_n33
*1027 mult_46_n32
*1028 mult_46_n31
*1029 mult_46_n30
*1030 mult_46_n29
*1031 mult_46_n28
*1032 mult_46_n27
*1033 mult_46_n26
*1034 mult_46_n25
*1035 mult_46_n24
*1036 mult_46_n23
*1037 mult_46_n22
*1038 mult_46_n21
*1039 mult_46_n20
*1040 mult_46_n19
*1041 mult_46_n18
*1042 mult_46_n17
*1043 mult_46_n16
*1044 mult_46_n15
*1045 mult_46_n14
*1046 mult_46_n13
*1047 mult_46_n8
*1048 mult_46_n7
*1049 mult_46_n6
*1050 mult_46_n5
*1051 mult_46_n4
*1052 mult_46_n3
*1053 mult_46_n2
*1054 add_2_root_add_0_root_add_48_3_n1
*1055 add_0_root_add_0_root_add_48_3_n1
*1056 q_reg2[6]
*1057 q_reg2[5]
*1058 q_reg2[4]
*1059 q_reg2[3]
*1060 q_reg2[2]
*1061 q_reg2[1]
*1062 q_reg2[0]
*1063 q_reg3[6]
*1064 q_reg3[5]
*1065 q_reg3[4]
*1066 q_reg3[3]
*1067 q_reg3[2]
*1068 q_reg3[1]
*1069 q_reg3[0]
*1070 q_regx[6]
*1071 q_regx[5]
*1072 q_regx[4]
*1073 q_regx[3]
*1074 q_regx[2]
*1075 q_regx[1]
*1076 q_regx[0]
*1077 TMPa[6]
*1078 TMPa[5]
*1079 TMPa[4]
*1080 TMPa[3]
*1081 TMPa[2]
*1082 TMPa[1]
*1083 TMPa[0]
*1084 q_reg1[6]
*1085 q_reg1[5]
*1086 q_reg1[4]
*1087 q_reg1[3]
*1088 q_reg1[2]
*1089 q_reg1[1]
*1090 q_reg1[0]
*1091 TMPb[7]
*1092 TMPb[6]
*1093 TMPb[5]
*1094 TMPb[4]
*1095 TMPb[3]
*1096 TMPb[2]
*1097 TMPb[1]
*1098 TMPb[0]
*1099 add_1_root_add_0_root_add_54_2_carry[7]
*1100 add_1_root_add_0_root_add_54_2_carry[6]
*1101 add_1_root_add_0_root_add_54_2_carry[5]
*1102 add_1_root_add_0_root_add_54_2_carry[4]
*1103 add_1_root_add_0_root_add_54_2_carry[3]
*1104 add_1_root_add_0_root_add_54_2_carry[2]
*1105 add_0_root_add_0_root_add_54_2_carry[7]
*1106 add_0_root_add_0_root_add_54_2_carry[6]
*1107 add_0_root_add_0_root_add_54_2_carry[5]
*1108 add_0_root_add_0_root_add_54_2_carry[4]
*1109 add_0_root_add_0_root_add_54_2_carry[3]
*1110 add_0_root_add_0_root_add_54_2_carry[2]
*1111 add_1_root_add_0_root_add_48_3_carry[6]
*1112 add_1_root_add_0_root_add_48_3_carry[5]
*1113 add_1_root_add_0_root_add_48_3_carry[4]
*1114 add_1_root_add_0_root_add_48_3_carry[3]
*1115 add_1_root_add_0_root_add_48_3_carry[2]
*1116 add_2_root_add_0_root_add_48_3_carry[6]
*1117 add_2_root_add_0_root_add_48_3_carry[5]
*1118 add_2_root_add_0_root_add_48_3_carry[4]
*1119 add_2_root_add_0_root_add_48_3_carry[3]
*1120 add_2_root_add_0_root_add_48_3_carry[2]
*1121 add_0_root_add_0_root_add_48_3_carry[6]
*1122 add_0_root_add_0_root_add_48_3_carry[5]
*1123 add_0_root_add_0_root_add_48_3_carry[4]
*1124 add_0_root_add_0_root_add_48_3_carry[3]
*1125 add_0_root_add_0_root_add_48_3_carry[2]
*1126 dout[0]
*1127 FE_RC_1_0
*1128 FE_DBTC5_q_reg2_0
*1129 FE_DBTC4_q_reg2_1
*1130 FE_DBTC3_q_reg2_2
*1131 FE_DBTC2_q_reg2_3
*1132 FE_DBTC1_q_reg2_4
*1133 FE_DBTC0_q_reg2_5
*1134 reg_x_U16
*1135 reg_x_U15
*1136 reg_x_U14
*1137 reg_x_U13
*1138 reg_x_U12
*1139 reg_x_U11
*1140 reg_x_U10
*1141 reg_x_U9
*1142 reg_x_U8
*1143 reg_x_U7
*1144 reg_x_U6
*1145 reg_x_U5
*1146 reg_x_U4
*1147 reg_x_U3
*1148 reg_x_Q_reg_0_
*1149 reg_x_Q_reg_1_
*1150 reg_x_Q_reg_2_
*1151 reg_x_Q_reg_3_
*1152 reg_x_Q_reg_4_
*1153 reg_x_Q_reg_5_
*1154 reg_x_Q_reg_6_
*1155 reg_1_U16
*1156 reg_1_U15
*1157 reg_1_U13
*1158 reg_1_U12
*1159 reg_1_U11
*1160 reg_1_U10
*1161 reg_1_U9
*1162 reg_1_U8
*1163 reg_1_U7
*1164 reg_1_U6
*1165 reg_1_U5
*1166 reg_1_U4
*1167 reg_1_U3
*1168 reg_1_U2
*1169 reg_1_Q_reg_0_
*1170 reg_1_Q_reg_1_
*1171 reg_1_Q_reg_2_
*1172 reg_1_Q_reg_3_
*1173 reg_1_Q_reg_4_
*1174 reg_1_Q_reg_5_
*1175 reg_1_Q_reg_6_
*1176 reg_2_U16
*1177 reg_2_U15
*1178 reg_2_U14
*1179 reg_2_U13
*1180 reg_2_U12
*1181 reg_2_U11
*1182 reg_2_U10
*1183 reg_2_U9
*1184 reg_2_U8
*1185 reg_2_U7
*1186 reg_2_U6
*1187 reg_2_U5
*1188 reg_2_U4
*1189 reg_2_U3
*1190 reg_2_Q_reg_0_
*1191 reg_2_Q_reg_1_
*1192 reg_2_Q_reg_2_
*1193 reg_2_Q_reg_3_
*1194 reg_2_Q_reg_4_
*1195 reg_2_Q_reg_5_
*1196 reg_2_Q_reg_6_
*1197 reg_3_U16
*1198 reg_3_U15
*1199 reg_3_U14
*1200 reg_3_U13
*1201 reg_3_U12
*1202 reg_3_U11
*1203 reg_3_U10
*1204 reg_3_U9
*1205 reg_3_U8
*1206 reg_3_U7
*1207 reg_3_U6
*1208 reg_3_U5
*1209 reg_3_U4
*1210 reg_3_U3
*1211 reg_3_Q_reg_0_
*1212 reg_3_Q_reg_1_
*1213 reg_3_Q_reg_2_
*1214 reg_3_Q_reg_3_
*1215 reg_3_Q_reg_4_
*1216 reg_3_Q_reg_5_
*1217 reg_3_Q_reg_6_
*1218 reg_dout_U17
*1219 reg_dout_U16
*1220 reg_dout_U15
*1221 reg_dout_U14
*1222 reg_dout_U13
*1223 reg_dout_U12
*1224 reg_dout_U11
*1225 reg_dout_U10
*1226 reg_dout_U9
*1227 reg_dout_U8
*1228 reg_dout_U7
*1229 reg_dout_U6
*1230 reg_dout_U5
*1231 reg_dout_U4
*1232 reg_dout_U3
*1233 reg_dout_U2
*1234 reg_dout_Q_reg_0_
*1235 reg_dout_Q_reg_1_
*1236 reg_dout_Q_reg_2_
*1237 reg_dout_Q_reg_3_
*1238 reg_dout_Q_reg_4_
*1239 reg_dout_Q_reg_5_
*1240 reg_dout_Q_reg_6_
*1241 reg_dout_Q_reg_7_
*1242 ff_1_Q_reg
*1243 mult_50_U178
*1244 mult_50_U177
*1245 mult_50_U176
*1246 mult_50_U175
*1247 mult_50_U174
*1248 mult_50_U173
*1249 mult_50_U172
*1250 mult_50_U171
*1251 mult_50_U170
*1252 mult_50_U169
*1253 mult_50_U168
*1254 mult_50_U167
*1255 mult_50_U166
*1256 mult_50_U165
*1257 mult_50_U164
*1258 mult_50_U163
*1259 mult_50_U162
*1260 mult_50_U161
*1261 mult_50_U160
*1262 mult_50_U159
*1263 mult_50_U158
*1264 mult_50_U157
*1265 mult_50_U156
*1266 mult_50_U155
*1267 mult_50_U154
*1268 mult_50_U153
*1269 mult_50_U152
*1270 mult_50_U151
*1271 mult_50_U150
*1272 mult_50_U149
*1273 mult_50_U148
*1274 mult_50_U147
*1275 mult_50_U146
*1276 mult_50_U145
*1277 mult_50_U144
*1278 mult_50_U143
*1279 mult_50_U142
*1280 mult_50_U141
*1281 mult_50_U140
*1282 mult_50_U139
*1283 mult_50_U138
*1284 mult_50_U137
*1285 mult_50_U136
*1286 mult_50_U135
*1287 mult_50_U134
*1288 mult_50_U133
*1289 mult_50_U132
*1290 mult_50_U131
*1291 mult_50_U130
*1292 mult_50_U129
*1293 mult_50_U128
*1294 mult_50_U127
*1295 mult_50_U126
*1296 mult_50_U125
*1297 mult_50_U124
*1298 mult_50_U123
*1299 mult_50_U122
*1300 mult_50_U121
*1301 mult_50_U120
*1302 mult_50_U119
*1303 mult_50_U118
*1304 mult_50_U117
*1305 mult_50_U116
*1306 mult_50_U115
*1307 mult_50_U114
*1308 mult_50_U113
*1309 mult_50_U112
*1310 mult_50_U111
*1311 mult_50_U110
*1312 mult_50_U109
*1313 mult_50_U44
*1314 mult_50_U43
*1315 mult_50_U42
*1316 mult_50_U41
*1317 mult_50_U40
*1318 mult_50_U39
*1319 mult_50_U38
*1320 mult_50_U37
*1321 mult_50_U36
*1322 mult_50_U35
*1323 mult_50_U34
*1324 mult_50_U33
*1325 mult_50_U32
*1326 mult_50_U31
*1327 mult_50_U30
*1328 mult_50_U27
*1329 mult_50_U26
*1330 mult_50_U25
*1331 mult_50_U24
*1332 mult_50_U23
*1333 mult_50_U22
*1334 mult_50_U21
*1335 mult_50_U20
*1336 mult_50_U19
*1337 mult_50_U18
*1338 mult_50_U17
*1339 mult_50_U16
*1340 mult_50_U15
*1341 mult_50_U14
*1342 mult_50_U8
*1343 mult_50_U7
*1344 mult_50_U6
*1345 mult_50_U5
*1346 mult_50_U4
*1347 mult_50_U3
*1348 mult_50_U2
*1349 mult_51_U178
*1350 mult_51_U177
*1351 mult_51_U176
*1352 mult_51_U175
*1353 mult_51_U174
*1354 mult_51_U173
*1355 mult_51_U172
*1356 mult_51_U171
*1357 mult_51_U170
*1358 mult_51_U169
*1359 mult_51_U168
*1360 mult_51_U167
*1361 mult_51_U166
*1362 mult_51_U165
*1363 mult_51_U164
*1364 mult_51_U163
*1365 mult_51_U162
*1366 mult_51_U161
*1367 mult_51_U160
*1368 mult_51_U159
*1369 mult_51_U158
*1370 mult_51_U157
*1371 mult_51_U156
*1372 mult_51_U155
*1373 mult_51_U154
*1374 mult_51_U153
*1375 mult_51_U152
*1376 mult_51_U151
*1377 mult_51_U150
*1378 mult_51_U149
*1379 mult_51_U148
*1380 mult_51_U147
*1381 mult_51_U146
*1382 mult_51_U145
*1383 mult_51_U144
*1384 mult_51_U143
*1385 mult_51_U142
*1386 mult_51_U141
*1387 mult_51_U140
*1388 mult_51_U139
*1389 mult_51_U138
*1390 mult_51_U137
*1391 mult_51_U136
*1392 mult_51_U135
*1393 mult_51_U134
*1394 mult_51_U133
*1395 mult_51_U132
*1396 mult_51_U131
*1397 mult_51_U130
*1398 mult_51_U129
*1399 mult_51_U128
*1400 mult_51_U127
*1401 mult_51_U126
*1402 mult_51_U125
*1403 mult_51_U124
*1404 mult_51_U123
*1405 mult_51_U122
*1406 mult_51_U121
*1407 mult_51_U120
*1408 mult_51_U119
*1409 mult_51_U118
*1410 mult_51_U117
*1411 mult_51_U116
*1412 mult_51_U115
*1413 mult_51_U114
*1414 mult_51_U113
*1415 mult_51_U112
*1416 mult_51_U111
*1417 mult_51_U110
*1418 mult_51_U109
*1419 mult_51_U44
*1420 mult_51_U43
*1421 mult_51_U42
*1422 mult_51_U41
*1423 mult_51_U40
*1424 mult_51_U39
*1425 mult_51_U38
*1426 mult_51_U37
*1427 mult_51_U36
*1428 mult_51_U35
*1429 mult_51_U34
*1430 mult_51_U33
*1431 mult_51_U32
*1432 mult_51_U31
*1433 mult_51_U30
*1434 mult_51_U27
*1435 mult_51_U26
*1436 mult_51_U25
*1437 mult_51_U24
*1438 mult_51_U23
*1439 mult_51_U22
*1440 mult_51_U21
*1441 mult_51_U20
*1442 mult_51_U19
*1443 mult_51_U18
*1444 mult_51_U17
*1445 mult_51_U16
*1446 mult_51_U15
*1447 mult_51_U14
*1448 mult_51_U8
*1449 mult_51_U7
*1450 mult_51_U6
*1451 mult_51_U5
*1452 mult_51_U4
*1453 mult_51_U3
*1454 mult_51_U2
*1455 mult_52_U178
*1456 mult_52_U177
*1457 mult_52_U176
*1458 mult_52_U175
*1459 mult_52_U174
*1460 mult_52_U173
*1461 mult_52_U172
*1462 mult_52_U171
*1463 mult_52_U170
*1464 mult_52_U169
*1465 mult_52_U168
*1466 mult_52_U167
*1467 mult_52_U166
*1468 mult_52_U165
*1469 mult_52_U164
*1470 mult_52_U163
*1471 mult_52_U162
*1472 mult_52_U161
*1473 mult_52_U160
*1474 mult_52_U159
*1475 mult_52_U158
*1476 mult_52_U157
*1477 mult_52_U156
*1478 mult_52_U155
*1479 mult_52_U154
*1480 mult_52_U153
*1481 mult_52_U152
*1482 mult_52_U151
*1483 mult_52_U150
*1484 mult_52_U149
*1485 mult_52_U148
*1486 mult_52_U147
*1487 mult_52_U146
*1488 mult_52_U145
*1489 mult_52_U144
*1490 mult_52_U143
*1491 mult_52_U142
*1492 mult_52_U141
*1493 mult_52_U140
*1494 mult_52_U139
*1495 mult_52_U138
*1496 mult_52_U137
*1497 mult_52_U136
*1498 mult_52_U135
*1499 mult_52_U134
*1500 mult_52_U133
*1501 mult_52_U132
*1502 mult_52_U131
*1503 mult_52_U130
*1504 mult_52_U129
*1505 mult_52_U128
*1506 mult_52_U127
*1507 mult_52_U126
*1508 mult_52_U125
*1509 mult_52_U124
*1510 mult_52_U123
*1511 mult_52_U119
*1512 mult_52_U118
*1513 mult_52_U117
*1514 mult_52_U113
*1515 mult_52_U112
*1516 mult_52_U111
*1517 mult_52_U110
*1518 mult_52_U109
*1519 mult_52_U44
*1520 mult_52_U43
*1521 mult_52_U42
*1522 mult_52_U41
*1523 mult_52_U40
*1524 mult_52_U39
*1525 mult_52_U38
*1526 mult_52_U37
*1527 mult_52_U36
*1528 mult_52_U35
*1529 mult_52_U34
*1530 mult_52_U33
*1531 mult_52_U32
*1532 mult_52_U31
*1533 mult_52_U30
*1534 mult_52_U27
*1535 mult_52_U26
*1536 mult_52_U25
*1537 mult_52_U24
*1538 mult_52_U23
*1539 mult_52_U22
*1540 mult_52_U21
*1541 mult_52_U20
*1542 mult_52_U19
*1543 mult_52_U18
*1544 mult_52_U17
*1545 mult_52_U16
*1546 mult_52_U15
*1547 mult_52_U14
*1548 mult_52_U8
*1549 mult_52_U7
*1550 mult_52_U6
*1551 mult_52_U5
*1552 mult_52_U4
*1553 mult_52_U3
*1554 mult_52_U2
*1555 add_1_root_add_0_root_add_54_2_U2
*1556 add_1_root_add_0_root_add_54_2_U1
*1557 add_1_root_add_0_root_add_54_2_U1_1
*1558 add_1_root_add_0_root_add_54_2_U1_2
*1559 add_1_root_add_0_root_add_54_2_U1_3
*1560 add_1_root_add_0_root_add_54_2_U1_4
*1561 add_1_root_add_0_root_add_54_2_U1_5
*1562 add_1_root_add_0_root_add_54_2_U1_6
*1563 add_1_root_add_0_root_add_54_2_U1_7
*1564 add_0_root_add_0_root_add_54_2_U2
*1565 add_0_root_add_0_root_add_54_2_U1
*1566 add_0_root_add_0_root_add_54_2_U1_1
*1567 add_0_root_add_0_root_add_54_2_U1_2
*1568 add_0_root_add_0_root_add_54_2_U1_3
*1569 add_0_root_add_0_root_add_54_2_U1_4
*1570 add_0_root_add_0_root_add_54_2_U1_5
*1571 add_0_root_add_0_root_add_54_2_U1_6
*1572 add_0_root_add_0_root_add_54_2_U1_7
*1573 mult_47_U179
*1574 mult_47_U178
*1575 mult_47_U177
*1576 mult_47_U176
*1577 mult_47_U175
*1578 mult_47_U174
*1579 mult_47_U173
*1580 mult_47_U172
*1581 mult_47_U171
*1582 mult_47_U170
*1583 mult_47_U169
*1584 mult_47_U168
*1585 mult_47_U167
*1586 mult_47_U166
*1587 mult_47_U165
*1588 mult_47_U164
*1589 mult_47_U163
*1590 mult_47_U162
*1591 mult_47_U161
*1592 mult_47_U160
*1593 mult_47_U159
*1594 mult_47_U158
*1595 mult_47_U157
*1596 mult_47_U156
*1597 mult_47_U155
*1598 mult_47_U154
*1599 mult_47_U153
*1600 mult_47_U152
*1601 mult_47_U151
*1602 mult_47_U150
*1603 mult_47_U149
*1604 mult_47_U148
*1605 mult_47_U147
*1606 mult_47_U146
*1607 mult_47_U145
*1608 mult_47_U144
*1609 mult_47_U143
*1610 mult_47_U142
*1611 mult_47_U141
*1612 mult_47_U140
*1613 mult_47_U139
*1614 mult_47_U138
*1615 mult_47_U137
*1616 mult_47_U136
*1617 mult_47_U135
*1618 mult_47_U134
*1619 mult_47_U133
*1620 mult_47_U132
*1621 mult_47_U131
*1622 mult_47_U130
*1623 mult_47_U129
*1624 mult_47_U128
*1625 mult_47_U127
*1626 mult_47_U126
*1627 mult_47_U125
*1628 mult_47_U124
*1629 mult_47_U123
*1630 mult_47_U122
*1631 mult_47_U121
*1632 mult_47_U120
*1633 mult_47_U119
*1634 mult_47_U118
*1635 mult_47_U117
*1636 mult_47_U116
*1637 mult_47_U115
*1638 mult_47_U114
*1639 mult_47_U113
*1640 mult_47_U112
*1641 mult_47_U111
*1642 mult_47_U110
*1643 mult_47_U109
*1644 mult_47_U44
*1645 mult_47_U43
*1646 mult_47_U42
*1647 mult_47_U41
*1648 mult_47_U40
*1649 mult_47_U39
*1650 mult_47_U38
*1651 mult_47_U37
*1652 mult_47_U36
*1653 mult_47_U35
*1654 mult_47_U34
*1655 mult_47_U33