*SPEF "IEEE 1481-1998"
*DESIGN "iir_filter"
*DATE "Tue Nov  2 22:47:44 2021"
*VENDOR "Cadence Design Systems, Inc."
*PROGRAM "Innovus"
*VERSION "17.11-s080_1"
*DESIGN_FLOW "COUPLING C" "PIN_CAP NONE" "NAME_SCOPE LOCAL"
*DIVIDER /
*DELIMITER :
*BUS_DELIMITER []
*T_UNIT 1 NS
*C_UNIT 1 PF
*R_UNIT 1 OHM
*L_UNIT 1 HENRY

// MMMC spef file for corner 'my_rc'

*NAME_MAP

*1 FE_OFN19_mult_48_n307
*2 FE_OFN18_mult_53_n304
*3 FE_OFN17_mult_54_n302
*4 FE_OFN16_mult_54_n299
*5 FE_OFN15_mult_48_n304
*6 FE_OFN14_mult_49_n304
*7 FE_OFN13_mult_53_n307
*8 FE_OFN12_mult_49_n307
*9 FE_OFN11_q_reg2_1
*10 FE_OFN10_q_reg2_3
*11 FE_OFN9_q_reg2_8
*12 FE_OFN8_q_reg2_7
*13 FE_OFN7_q_reg1_3
*14 FE_OFN6_q_reg2_5
*15 FE_OFN5_mult_52_n299
*16 FE_OFN4_q_reg1_1
*17 FE_OFN3_mult_52_n302
*18 FE_OFN2_q_reg1_5
*19 FE_OFN1_q_reg1_8
*20 FE_OFN0_q_reg1_7
*21 FE_DBTN7_q_reg1_0
*22 FE_DBTN6_q_reg1_3
*23 FE_DBTN5_q_reg1_5
*24 FE_DBTN4_q_reg1_7
*25 FE_DBTN3_q_reg2_0
*26 FE_DBTN2_q_reg2_3
*27 FE_DBTN1_q_reg2_5
*28 FE_DBTN0_q_reg2_7
*29 din[8]
*30 din[7]
*31 din[6]
*32 din[5]
*33 din[4]
*34 din[3]
*35 din[2]
*36 din[1]
*37 din[0]
*38 a1[8]
*39 a1[7]
*40 a1[6]
*41 a1[5]
*42 a1[4]
*43 a1[3]
*44 a1[2]
*45 a1[1]
*46 a1[0]
*47 a2[8]
*48 a2[7]
*49 a2[6]
*50 a2[5]
*51 a2[4]
*52 a2[3]
*53 a2[2]
*54 a2[1]
*55 a2[0]
*56 b0[8]
*57 b0[7]
*58 b0[6]
*59 b0[5]
*60 b0[4]
*61 b0[3]
*62 b0[2]
*63 b0[1]
*64 b0[0]
*65 b1[8]
*66 b1[7]
*67 b1[6]
*68 b1[5]
*69 b1[4]
*70 b1[3]
*71 b1[2]
*72 b1[1]
*73 b1[0]
*74 b2[8]
*75 b2[7]
*76 b2[6]
*77 b2[5]
*78 b2[4]
*79 b2[3]
*80 b2[2]
*81 b2[1]
*82 b2[0]
*83 dout[8]
*84 dout[7]
*85 dout[6]
*86 dout[5]
*87 dout[4]
*88 dout[3]
*89 dout[2]
*90 dout[1]
*91 dout[0]
*92 clock
*93 rst_n
*94 vin
*95 vout
*96 TMPtmpa_b0_9_
*97 TMPtmpa_b0_8_
*98 TMPtmpa_b0_16_
*99 TMPtmpa_b0_15_
*100 TMPtmpa_b0_14_
*101 TMPtmpa_b0_13_
*102 TMPtmpa_b0_12_
*103 TMPtmpa_b0_11_
*104 TMPtmpa_b0_10_
*105 TMPq2_b2_9_
*106 TMPq2_b2_8_
*107 TMPq2_b2_16_
*108 TMPq2_b2_15_
*109 TMPq2_b2_14_
*110 TMPq2_b2_13_
*111 TMPq2_b2_12_
*112 TMPq2_b2_11_
*113 TMPq2_b2_10_
*114 TMPq1_b1_9_
*115 TMPq1_b1_8_
*116 TMPq1_b1_16_
*117 TMPq1_b1_15_
*118 TMPq1_b1_14_
*119 TMPq1_b1_13_
*120 TMPq1_b1_12_
*121 TMPq1_b1_11_
*122 TMPq1_b1_10_
*123 N9
*124 N17
*125 N16
*126 N15
*127 N14
*128 N13
*129 N12
*130 N11
*131 N10
*132 TMPq2_a2_9_
*133 TMPq2_a2_8_
*134 TMPq2_a2_16_
*135 TMPq2_a2_15_
*136 TMPq2_a2_14_
*137 TMPq2_a2_13_
*138 TMPq2_a2_12_
*139 TMPq2_a2_11_
*140 TMPq2_a2_10_
*141 TMPq1_a1_9_
*142 TMPq1_a1_8_
*143 TMPq1_a1_16_
*144 TMPq1_a1_15_
*145 TMPq1_a1_14_
*146 TMPq1_a1_13_
*147 TMPq1_a1_12_
*148 TMPq1_a1_11_
*149 TMPq1_a1_10_
*150 N8
*151 N7
*152 N6
*153 N5
*154 N4
*155 N3
*156 N2
*157 N1
*158 N0
*159 reg_1_n27
*160 reg_1_n26
*161 reg_1_n25
*162 reg_1_n24
*163 reg_1_n23
*164 reg_1_n22
*165 reg_1_n21
*166 reg_1_n20
*167 reg_1_n19
*168 reg_1_n18
*169 reg_1_n17
*170 reg_1_n16
*171 reg_1_n15
*172 reg_1_n14
*173 reg_1_n13
*174 reg_1_n12
*175 reg_1_n11
*176 reg_1_n10
*177 reg_1_n9
*178 reg_1_n8
*179 reg_1_n7
*180 reg_1_n6
*181 reg_1_n5
*182 reg_1_n4
*183 reg_1_n3
*184 reg_1_n2
*185 reg_1_n1
*186 reg_2_n56
*187 reg_2_n55
*188 reg_2_n54
*189 reg_2_n53
*190 reg_2_n52
*191 reg_2_n51
*192 reg_2_n50
*193 reg_2_n49
*194 reg_2_n48
*195 reg_2_n47
*196 reg_2_n46
*197 reg_2_n45
*198 reg_2_n44
*199 reg_2_n43
*200 reg_2_n42
*201 reg_2_n41
*202 reg_2_n40
*203 reg_2_n39
*204 reg_2_n38
*205 reg_2_n37
*206 reg_2_n36
*207 reg_2_n35
*208 reg_2_n34
*209 reg_2_n33
*210 reg_2_n32
*211 reg_2_n31
*212 reg_2_n30
*213 reg_dout_n56
*214 reg_dout_n55
*215 reg_dout_n54
*216 reg_dout_n53
*217 reg_dout_n52
*218 reg_dout_n51
*219 reg_dout_n50
*220 reg_dout_n49
*221 reg_dout_n48
*222 reg_dout_n47
*223 reg_dout_n46
*224 reg_dout_n45
*225 reg_dout_n44
*226 reg_dout_n43
*227 reg_dout_n42
*228 reg_dout_n41
*229 reg_dout_n40
*230 reg_dout_n39
*231 reg_dout_n38
*232 reg_dout_n37
*233 reg_dout_n36
*234 reg_dout_n35
*235 reg_dout_n34
*236 reg_dout_n33
*237 reg_dout_n32
*238 reg_dout_n31
*239 reg_dout_n30
*240 ff_1_n3
*241 ff_1_n2
*242 mult_52_n362
*243 mult_52_n361
*244 mult_52_n360
*245 mult_52_n359
*246 mult_52_n358
*247 mult_52_n357
*248 mult_52_n356
*249 mult_52_n355
*250 mult_52_n354
*251 mult_52_n353
*252 mult_52_n352
*253 mult_52_n351
*254 mult_52_n350
*255 mult_52_n349
*256 mult_52_n348
*257 mult_52_n347
*258 mult_52_n346
*259 mult_52_n345
*260 mult_52_n344
*261 mult_52_n343
*262 mult_52_n342
*263 mult_52_n341
*264 mult_52_n340
*265 mult_52_n339
*266 mult_52_n338
*267 mult_52_n337
*268 mult_52_n336
*269 mult_52_n335
*270 mult_52_n334
*271 mult_52_n333
*272 mult_52_n332
*273 mult_52_n331
*274 mult_52_n330
*275 mult_52_n329
*276 mult_52_n328
*277 mult_52_n327
*278 mult_52_n326
*279 mult_52_n325
*280 mult_52_n324
*281 mult_52_n323
*282 mult_52_n322
*283 mult_52_n321
*284 mult_52_n320
*285 mult_52_n319
*286 mult_52_n318
*287 mult_52_n317
*288 mult_52_n316
*289 mult_52_n315
*290 mult_52_n314
*291 mult_52_n313
*292 mult_52_n312
*293 mult_52_n311
*294 mult_52_n310
*295 mult_52_n309
*296 mult_52_n308
*297 mult_52_n307
*298 mult_52_n306
*299 mult_52_n305
*300 mult_52_n304
*301 mult_52_n303
*302 mult_52_n302
*303 mult_52_n301
*304 mult_52_n300
*305 mult_52_n299
*306 mult_52_n298
*307 mult_52_n297
*308 mult_52_n296
*309 mult_52_n295
*310 mult_52_n294
*311 mult_52_n293
*312 mult_52_n292
*313 mult_52_n291
*314 mult_52_n290
*315 mult_52_n289
*316 mult_52_n288
*317 mult_52_n287
*318 mult_52_n286
*319 mult_52_n285
*320 mult_52_n284
*321 mult_52_n283
*322 mult_52_n282
*323 mult_52_n281
*324 mult_52_n280
*325 mult_52_n279
*326 mult_52_n278
*327 mult_52_n277
*328 mult_52_n276
*329 mult_52_n275
*330 mult_52_n274
*331 mult_52_n273
*332 mult_52_n272
*333 mult_52_n271
*334 mult_52_n270
*335 mult_52_n269
*336 mult_52_n268
*337 mult_52_n140
*338 mult_52_n139
*339 mult_52_n138
*340 mult_52_n137
*341 mult_52_n136
*342 mult_52_n135
*343 mult_52_n132
*344 mult_52_n131
*345 mult_52_n130
*346 mult_52_n129
*347 mult_52_n128
*348 mult_52_n127
*349 mult_52_n126
*350 mult_52_n124
*351 mult_52_n123
*352 mult_52_n122
*353 mult_52_n121
*354 mult_52_n120
*355 mult_52_n119
*356 mult_52_n118
*357 mult_52_n117
*358 mult_52_n115
*359 mult_52_n114
*360 mult_52_n113
*361 mult_52_n111
*362 mult_52_n110
*363 mult_52_n109
*364 mult_52_n108
*365 mult_52_n106
*366 mult_52_n104
*367 mult_52_n103
*368 mult_52_n102
*369 mult_52_n101
*370 mult_52_n100
*371 mult_52_n99
*372 mult_52_n95
*373 mult_52_n94
*374 mult_52_n93
*375 mult_52_n79
*376 mult_52_n78
*377 mult_52_n77
*378 mult_52_n76
*379 mult_52_n75
*380 mult_52_n74
*381 mult_52_n73
*382 mult_52_n72
*383 mult_52_n71
*384 mult_52_n70
*385 mult_52_n69
*386 mult_52_n68
*387 mult_52_n67
*388 mult_52_n66
*389 mult_52_n65
*390 mult_52_n64
*391 mult_52_n63
*392 mult_52_n62
*393 mult_52_n61
*394 mult_52_n60
*395 mult_52_n59
*396 mult_52_n58
*397 mult_52_n57
*398 mult_52_n56
*399 mult_52_n55
*400 mult_52_n54
*401 mult_52_n53
*402 mult_52_n52
*403 mult_52_n51
*404 mult_52_n50
*405 mult_52_n49
*406 mult_52_n48
*407 mult_52_n46
*408 mult_52_n45
*409 mult_52_n44
*410 mult_52_n43
*411 mult_52_n42
*412 mult_52_n41
*413 mult_52_n40
*414 mult_52_n39
*415 mult_52_n38
*416 mult_52_n37
*417 mult_52_n36
*418 mult_52_n35
*419 mult_52_n34
*420 mult_52_n32
*421 mult_52_n31
*422 mult_52_n30
*423 mult_52_n29
*424 mult_52_n28
*425 mult_52_n27
*426 mult_52_n26
*427 mult_52_n25
*428 mult_52_n24
*429 mult_52_n22
*430 mult_52_n21
*431 mult_52_n20
*432 mult_52_n19
*433 mult_52_n18
*434 mult_52_n9
*435 mult_52_n8
*436 mult_52_n7
*437 mult_52_n6
*438 mult_52_n5
*439 mult_52_n4
*440 mult_52_n3
*441 mult_52_n2
*442 mult_53_n367
*443 mult_53_n366
*444 mult_53_n365
*445 mult_53_n364
*446 mult_53_n363
*447 mult_53_n362
*448 mult_53_n361
*449 mult_53_n360
*450 mult_53_n359
*451 mult_53_n358
*452 mult_53_n357
*453 mult_53_n356
*454 mult_53_n355
*455 mult_53_n354
*456 mult_53_n353
*457 mult_53_n352
*458 mult_53_n351
*459 mult_53_n350
*460 mult_53_n349
*461 mult_53_n348
*462 mult_53_n347
*463 mult_53_n346
*464 mult_53_n345
*465 mult_53_n344
*466 mult_53_n343
*467 mult_53_n342
*468 mult_53_n341
*469 mult_53_n340
*470 mult_53_n339
*471 mult_53_n338
*472 mult_53_n337
*473 mult_53_n336
*474 mult_53_n335
*475 mult_53_n334
*476 mult_53_n333
*477 mult_53_n332
*478 mult_53_n331
*479 mult_53_n330
*480 mult_53_n329
*481 mult_53_n328
*482 mult_53_n327
*483 mult_53_n326
*484 mult_53_n325
*485 mult_53_n324
*486 mult_53_n323
*487 mult_53_n322
*488 mult_53_n321
*489 mult_53_n320
*490 mult_53_n319
*491 mult_53_n318
*492 mult_53_n317
*493 mult_53_n316
*494 mult_53_n315
*495 mult_53_n314
*496 mult_53_n313
*497 mult_53_n312
*498 mult_53_n311
*499 mult_53_n310
*500 mult_53_n309
*501 mult_53_n308
*502 mult_53_n307
*503 mult_53_n306
*504 mult_53_n305
*505 mult_53_n304
*506 mult_53_n303
*507 mult_53_n302
*508 mult_53_n301
*509 mult_53_n300
*510 mult_53_n299
*511 mult_53_n298
*512 mult_53_n297
*513 mult_53_n296
*514 mult_53_n295
*515 mult_53_n293
*516 mult_53_n292
*517 mult_53_n290
*518 mult_53_n289
*519 mult_53_n288
*520 mult_53_n287
*521 mult_53_n285
*522 mult_53_n284
*523 mult_53_n283
*524 mult_53_n282
*525 mult_53_n280
*526 mult_53_n279
*527 mult_53_n278
*528 mult_53_n277
*529 mult_53_n276
*530 mult_53_n270
*531 mult_53_n269
*532 mult_53_n268
*533 mult_53_n140
*534 mult_53_n139
*535 mult_53_n138
*536 mult_53_n137
*537 mult_53_n136
*538 mult_53_n135
*539 mult_53_n132
*540 mult_53_n131
*541 mult_53_n130
*542 mult_53_n129
*543 mult_53_n128
*544 mult_53_n127
*545 mult_53_n126
*546 mult_53_n124
*547 mult_53_n123
*548 mult_53_n122
*549 mult_53_n121
*550 mult_53_n120
*551 mult_53_n119
*552 mult_53_n118
*553 mult_53_n117
*554 mult_53_n115
*555 mult_53_n114
*556 mult_53_n113
*557 mult_53_n111
*558 mult_53_n110
*559 mult_53_n109
*560 mult_53_n108
*561 mult_53_n106
*562 mult_53_n104
*563 mult_53_n103
*564 mult_53_n102
*565 mult_53_n101
*566 mult_53_n100
*567 mult_53_n99
*568 mult_53_n95
*569 mult_53_n94
*570 mult_53_n93
*571 mult_53_n79
*572 mult_53_n78
*573 mult_53_n77
*574 mult_53_n76
*575 mult_53_n75
*576 mult_53_n74
*577 mult_53_n73
*578 mult_53_n72
*579 mult_53_n71
*580 mult_53_n70
*581 mult_53_n69
*582 mult_53_n68
*583 mult_53_n67
*584 mult_53_n66
*585 mult_53_n65
*586 mult_53_n64
*587 mult_53_n63
*588 mult_53_n62
*589 mult_53_n61
*590 mult_53_n60
*591 mult_53_n59
*592 mult_53_n58
*593 mult_53_n57
*594 mult_53_n56
*595 mult_53_n55
*596 mult_53_n54
*597 mult_53_n53
*598 mult_53_n52
*599 mult_53_n51
*600 mult_53_n50
*601 mult_53_n49
*602 mult_53_n48
*603 mult_53_n46
*604 mult_53_n45
*605 mult_53_n44
*606 mult_53_n43
*607 mult_53_n42
*608 mult_53_n41
*609 mult_53_n40
*610 mult_53_n39
*611 mult_53_n38
*612 mult_53_n37
*613 mult_53_n36
*614 mult_53_n35
*615 mult_53_n34
*616 mult_53_n32
*617 mult_53_n31
*618 mult_53_n30
*619 mult_53_n29
*620 mult_53_n28
*621 mult_53_n27
*622 mult_53_n26
*623 mult_53_n25
*624 mult_53_n24
*625 mult_53_n22
*626 mult_53_n21
*627 mult_53_n20
*628 mult_53_n19
*629 mult_53_n18
*630 mult_53_n9
*631 mult_53_n8
*632 mult_53_n7
*633 mult_53_n6
*634 mult_53_n5
*635 mult_53_n4
*636 mult_53_n3
*637 mult_53_n2
*638 mult_54_n362
*639 mult_54_n361
*640 mult_54_n360
*641 mult_54_n359
*642 mult_54_n358
*643 mult_54_n357
*644 mult_54_n356
*645 mult_54_n355
*646 mult_54_n354
*647 mult_54_n353
*648 mult_54_n352
*649 mult_54_n351
*650 mult_54_n350
*651 mult_54_n349
*652 mult_54_n348
*653 mult_54_n347
*654 mult_54_n346
*655 mult_54_n345
*656 mult_54_n344
*657 mult_54_n343
*658 mult_54_n342
*659 mult_54_n341
*660 mult_54_n340
*661 mult_54_n339
*662 mult_54_n338
*663 mult_54_n337
*664 mult_54_n336
*665 mult_54_n335
*666 mult_54_n334
*667 mult_54_n333
*668 mult_54_n332
*669 mult_54_n331
*670 mult_54_n330
*671 mult_54_n329
*672 mult_54_n328
*673 mult_54_n327
*674 mult_54_n326
*675 mult_54_n325
*676 mult_54_n324
*677 mult_54_n323
*678 mult_54_n322
*679 mult_54_n321
*680 mult_54_n320
*681 mult_54_n319
*682 mult_54_n318
*683 mult_54_n317
*684 mult_54_n316
*685 mult_54_n315
*686 mult_54_n314
*687 mult_54_n313
*688 mult_54_n312
*689 mult_54_n311
*690 mult_54_n310
*691 mult_54_n309
*692 mult_54_n308
*693 mult_54_n307
*694 mult_54_n306
*695 mult_54_n305
*696 mult_54_n304
*697 mult_54_n303
*698 mult_54_n302
*699 mult_54_n301
*700 mult_54_n300
*701 mult_54_n299
*702 mult_54_n298
*703 mult_54_n297
*704 mult_54_n296
*705 mult_54_n295
*706 mult_54_n294
*707 mult_54_n293
*708 mult_54_n292
*709 mult_54_n291
*710 mult_54_n290
*711 mult_54_n288
*712 mult_54_n287
*713 mult_54_n285
*714 mult_54_n284
*715 mult_54_n283
*716 mult_54_n282
*717 mult_54_n280
*718 mult_54_n279
*719 mult_54_n278
*720 mult_54_n277
*721 mult_54_n275
*722 mult_54_n274
*723 mult_54_n273
*724 mult_54_n272
*725 mult_54_n271
*726 mult_54_n270
*727 mult_54_n269
*728 mult_54_n268
*729 mult_54_n140
*730 mult_54_n139
*731 mult_54_n138
*732 mult_54_n137
*733 mult_54_n136
*734 mult_54_n135
*735 mult_54_n132
*736 mult_54_n131
*737 mult_54_n130
*738 mult_54_n129
*739 mult_54_n128
*740 mult_54_n127
*741 mult_54_n126
*742 mult_54_n124
*743 mult_54_n123
*744 mult_54_n122
*745 mult_54_n121
*746 mult_54_n120
*747 mult_54_n119
*748 mult_54_n118
*749 mult_54_n117
*750 mult_54_n115
*751 mult_54_n114
*752 mult_54_n113
*753 mult_54_n111
*754 mult_54_n110
*755 mult_54_n109
*756 mult_54_n108
*757 mult_54_n106
*758 mult_54_n104
*759 mult_54_n103
*760 mult_54_n102
*761 mult_54_n101
*762 mult_54_n100
*763 mult_54_n99
*764 mult_54_n95
*765 mult_54_n94
*766 mult_54_n93
*767 mult_54_n79
*768 mult_54_n78
*769 mult_54_n77
*770 mult_54_n76
*771 mult_54_n75
*772 mult_54_n74
*773 mult_54_n73
*774 mult_54_n72
*775 mult_54_n71
*776 mult_54_n70
*777 mult_54_n69
*778 mult_54_n68
*779 mult_54_n67
*780 mult_54_n66
*781 mult_54_n65
*782 mult_54_n64
*783 mult_54_n63
*784 mult_54_n62
*785 mult_54_n61
*786 mult_54_n60
*787 mult_54_n59
*788 mult_54_n58
*789 mult_54_n57
*790 mult_54_n56
*791 mult_54_n55
*792 mult_54_n54
*793 mult_54_n53
*794 mult_54_n52
*795 mult_54_n51
*796 mult_54_n50
*797 mult_54_n49
*798 mult_54_n48
*799 mult_54_n46
*800 mult_54_n45
*801 mult_54_n44
*802 mult_54_n43
*803 mult_54_n42
*804 mult_54_n41
*805 mult_54_n40
*806 mult_54_n39
*807 mult_54_n38
*808 mult_54_n37
*809 mult_54_n36
*810 mult_54_n35
*811 mult_54_n34
*812 mult_54_n32
*813 mult_54_n31
*814 mult_54_n30
*815 mult_54_n29
*816 mult_54_n28
*817 mult_54_n27
*818 mult_54_n26
*819 mult_54_n25
*820 mult_54_n24
*821 mult_54_n22
*822 mult_54_n21
*823 mult_54_n20
*824 mult_54_n19
*825 mult_54_n18
*826 mult_54_n9
*827 mult_54_n8
*828 mult_54_n7
*829 mult_54_n6
*830 mult_54_n5
*831 mult_54_n4
*832 mult_54_n3
*833 mult_54_n2
*834 add_1_root_add_0_root_add_55_2_n2
*835 add_0_root_add_0_root_add_55_2_n2
*836 mult_48_n367
*837 mult_48_n365
*838 mult_48_n364
*839 mult_48_n363
*840 mult_48_n362
*841 mult_48_n361
*842 mult_48_n360
*843 mult_48_n359
*844 mult_48_n358
*845 mult_48_n357
*846 mult_48_n356
*847 mult_48_n355
*848 mult_48_n354
*849 mult_48_n353
*850 mult_48_n351
*851 mult_48_n350
*852 mult_48_n349
*853 mult_48_n348
*854 mult_48_n347
*855 mult_48_n346
*856 mult_48_n344
*857 mult_48_n343
*858 mult_48_n342
*859 mult_48_n341
*860 mult_48_n340
*861 mult_48_n339
*862 mult_48_n338
*863 mult_48_n337
*864 mult_48_n336
*865 mult_48_n335
*866 mult_48_n334
*867 mult_48_n333
*868 mult_48_n332
*869 mult_48_n331
*870 mult_48_n330
*871 mult_48_n329
*872 mult_48_n328
*873 mult_48_n327
*874 mult_48_n326
*875 mult_48_n325
*876 mult_48_n324
*877 mult_48_n323
*878 mult_48_n322
*879 mult_48_n321
*880 mult_48_n320
*881 mult_48_n319
*882 mult_48_n318
*883 mult_48_n317
*884 mult_48_n316
*885 mult_48_n315
*886 mult_48_n314
*887 mult_48_n313
*888 mult_48_n312
*889 mult_48_n311
*890 mult_48_n310
*891 mult_48_n309
*892 mult_48_n308
*893 mult_48_n307
*894 mult_48_n306
*895 mult_48_n305
*896 mult_48_n304
*897 mult_48_n303
*898 mult_48_n302
*899 mult_48_n301
*900 mult_48_n300
*901 mult_48_n299
*902 mult_48_n298
*903 mult_48_n297
*904 mult_48_n296
*905 mult_48_n295
*906 mult_48_n293
*907 mult_48_n292
*908 mult_48_n290
*909 mult_48_n289
*910 mult_48_n288
*911 mult_48_n287
*912 mult_48_n285
*913 mult_48_n284
*914 mult_48_n283
*915 mult_48_n282
*916 mult_48_n280
*917 mult_48_n279
*918 mult_48_n278
*919 mult_48_n277
*920 mult_48_n276
*921 mult_48_n270
*922 mult_48_n269
*923 mult_48_n268
*924 mult_48_n140
*925 mult_48_n139
*926 mult_48_n138
*927 mult_48_n137
*928 mult_48_n136
*929 mult_48_n135
*930 mult_48_n132
*931 mult_48_n131
*932 mult_48_n130
*933 mult_48_n129
*934 mult_48_n128
*935 mult_48_n127
*936 mult_48_n126
*937 mult_48_n124
*938 mult_48_n123
*939 mult_48_n122
*940 mult_48_n121
*941 mult_48_n120
*942 mult_48_n119
*943 mult_48_n118
*944 mult_48_n117
*945 mult_48_n115
*946 mult_48_n114
*947 mult_48_n113
*948 mult_48_n111
*949 mult_48_n110
*950 mult_48_n109
*951 mult_48_n108
*952 mult_48_n106
*953 mult_48_n104
*954 mult_48_n103
*955 mult_48_n102
*956 mult_48_n101
*957 mult_48_n100
*958 mult_48_n99
*959 mult_48_n95
*960 mult_48_n94
*961 mult_48_n93
*962 mult_48_n79
*963 mult_48_n78
*964 mult_48_n77
*965 mult_48_n76
*966 mult_48_n75
*967 mult_48_n74
*968 mult_48_n73
*969 mult_48_n72
*970 mult_48_n71
*971 mult_48_n70
*972 mult_48_n69
*973 mult_48_n68
*974 mult_48_n67
*975 mult_48_n66
*976 mult_48_n65
*977 mult_48_n64
*978 mult_48_n63
*979 mult_48_n62
*980 mult_48_n61
*981 mult_48_n60
*982 mult_48_n59
*983 mult_48_n58
*984 mult_48_n57
*985 mult_48_n56
*986 mult_48_n55
*987 mult_48_n54
*988 mult_48_n53
*989 mult_48_n52
*990 mult_48_n51
*991 mult_48_n50
*992 mult_48_n49
*993 mult_48_n48
*994 mult_48_n46
*995 mult_48_n45
*996 mult_48_n44
*997 mult_48_n43
*998 mult_48_n42
*999 mult_48_n41
*1000 mult_48_n40
*1001 mult_48_n39
*1002 mult_48_n38
*1003 mult_48_n37
*1004 mult_48_n36
*1005 mult_48_n35
*1006 mult_48_n34
*1007 mult_48_n32
*1008 mult_48_n31
*1009 mult_48_n30
*1010 mult_48_n29
*1011 mult_48_n28
*1012 mult_48_n27
*1013 mult_48_n26
*1014 mult_48_n25
*1015 mult_48_n24
*1016 mult_48_n22
*1017 mult_48_n21
*1018 mult_48_n20
*1019 mult_48_n19
*1020 mult_48_n18
*1021 mult_48_n9
*1022 mult_48_n8
*1023 mult_48_n7
*1024 mult_48_n6
*1025 mult_48_n5
*1026 mult_48_n4
*1027 mult_48_n3
*1028 mult_48_n2
*1029 mult_49_n367
*1030 mult_49_n365
*1031 mult_49_n364
*1032 mult_49_n363
*1033 mult_49_n362
*1034 mult_49_n361
*1035 mult_49_n360
*1036 mult_49_n359
*1037 mult_49_n358
*1038 mult_49_n357
*1039 mult_49_n356
*1040 mult_49_n355
*1041 mult_49_n354
*1042 mult_49_n353
*1043 mult_49_n351
*1044 mult_49_n350
*1045 mult_49_n349
*1046 mult_49_n348
*1047 mult_49_n347
*1048 mult_49_n346
*1049 mult_49_n344
*1050 mult_49_n343
*1051 mult_49_n342
*1052 mult_49_n341
*1053 mult_49_n340
*1054 mult_49_n339
*1055 mult_49_n338
*1056 mult_49_n337
*1057 mult_49_n336
*1058 mult_49_n335
*1059 mult_49_n334
*1060 mult_49_n333
*1061 mult_49_n332
*1062 mult_49_n331
*1063 mult_49_n330
*1064 mult_49_n329
*1065 mult_49_n328
*1066 mult_49_n327
*1067 mult_49_n326
*1068 mult_49_n325
*1069 mult_49_n324
*1070 mult_49_n323
*1071 mult_49_n322
*1072 mult_49_n321
*1073 mult_49_n320
*1074 mult_49_n319
*1075 mult_49_n318
*1076 mult_49_n317
*1077 mult_49_n316
*1078 mult_49_n315
*1079 mult_49_n314
*1080 mult_49_n313
*1081 mult_49_n312
*1082 mult_49_n311
*1083 mult_49_n310
*1084 mult_49_n309
*1085 mult_49_n308
*1086 mult_49_n307
*1087 mult_49_n306
*1088 mult_49_n305
*1089 mult_49_n304
*1090 mult_49_n303
*1091 mult_49_n302
*1092 mult_49_n301
*1093 mult_49_n300
*1094 mult_49_n299
*1095 mult_49_n298
*1096 mult_49_n297
*1097 mult_49_n296
*1098 mult_49_n295
*1099 mult_49_n293
*1100 mult_49_n292
*1101 mult_49_n290
*1102 mult_49_n289
*1103 mult_49_n288
*1104 mult_49_n287
*1105 mult_49_n285
*1106 mult_49_n284
*1107 mult_49_n283
*1108 mult_49_n282
*1109 mult_49_n280
*1110 mult_49_n279
*1111 mult_49_n278
*1112 mult_49_n277
*1113 mult_49_n276
*1114 mult_49_n270
*1115 mult_49_n269
*1116 mult_49_n268
*1117 mult_49_n140
*1118 mult_49_n139
*1119 mult_49_n138
*1120 mult_49_n137
*1121 mult_49_n136
*1122 mult_49_n135
*1123 mult_49_n132
*1124 mult_49_n131
*1125 mult_49_n130
*1126 mult_49_n129
*1127 mult_49_n128
*1128 mult_49_n127
*1129 mult_49_n126
*1130 mult_49_n124
*1131 mult_49_n123
*1132 mult_49_n122
*1133 mult_49_n121
*1134 mult_49_n120
*1135 mult_49_n119
*1136 mult_49_n118
*1137 mult_49_n117
*1138 mult_49_n115
*1139 mult_49_n114
*1140 mult_49_n113
*1141 mult_49_n111
*1142 mult_49_n110
*1143 mult_49_n109
*1144 mult_49_n108
*1145 mult_49_n106
*1146 mult_49_n104
*1147 mult_49_n103
*1148 mult_49_n102
*1149 mult_49_n101
*1150 mult_49_n100
*1151 mult_49_n99
*1152 mult_49_n95
*1153 mult_49_n94
*1154 mult_49_n93
*1155 mult_49_n79
*1156 mult_49_n78
*1157 mult_49_n77
*1158 mult_49_n76
*1159 mult_49_n75
*1160 mult_49_n74
*1161 mult_49_n73
*1162 mult_49_n72
*1163 mult_49_n71
*1164 mult_49_n70
*1165 mult_49_n69
*1166 mult_49_n68
*1167 mult_49_n67
*1168 mult_49_n66
*1169 mult_49_n65
*1170 mult_49_n64
*1171 mult_49_n63
*1172 mult_49_n62
*1173 mult_49_n61
*1174 mult_49_n60
*1175 mult_49_n59
*1176 mult_49_n58
*1177 mult_49_n57
*1178 mult_49_n56
*1179 mult_49_n55
*1180 mult_49_n54
*1181 mult_49_n53
*1182 mult_49_n52
*1183 mult_49_n51
*1184 mult_49_n50
*1185 mult_49_n49
*1186 mult_49_n48
*1187 mult_49_n46
*1188 mult_49_n45
*1189 mult_49_n44
*1190 mult_49_n43
*1191 mult_49_n42
*1192 mult_49_n41
*1193 mult_49_n40
*1194 mult_49_n39
*1195 mult_49_n38
*1196 mult_49_n37
*1197 mult_49_n36
*1198 mult_49_n35
*1199 mult_49_n34
*1200 mult_49_n32
*1201 mult_49_n31
*1202 mult_49_n30
*1203 mult_49_n29
*1204 mult_49_n28
*1205 mult_49_n27
*1206 mult_49_n26
*1207 mult_49_n25
*1208 mult_49_n24
*1209 mult_49_n22
*1210 mult_49_n21
*1211 mult_49_n20
*1212 mult_49_n19
*1213 mult_49_n18
*1214 mult_49_n9
*1215 mult_49_n8
*1216 mult_49_n7
*1217 mult_49_n6
*1218 mult_49_n5
*1219 mult_49_n4
*1220 mult_49_n3
*1221 mult_49_n2
*1222 add_1_root_add_0_root_add_50_2_n1
*1223 add_0_root_add_0_root_add_50_2_n1
*1224 q_reg1[8]
*1225 q_reg1[7]
*1226 q_reg1[6]
*1227 q_reg1[5]
*1228 q_reg1[4]
*1229 q_reg1[3]
*1230 q_reg1[2]
*1231 q_reg1[1]
*1232 q_reg1[0]
*1233 q_reg2[8]
*1234 q_reg2[7]
*1235 q_reg2[6]
*1236 q_reg2[5]
*1237 q_reg2[4]
*1238 q_reg2[3]
*1239 q_reg2[2]
*1240 q_reg2[1]
*1241 q_reg2[0]
*1242 TMPa[8]
*1243 TMPa[7]
*1244 TMPa[6]
*1245 TMPa[5]
*1246 TMPa[4]
*1247 TMPa[3]
*1248 TMPa[2]
*1249 TMPa[1]
*1250 TMPa[0]
*1251 TMPb[8]
*1252 TMPb[7]
*1253 TMPb[6]
*1254 TMPb[5]
*1255 TMPb[4]
*1256 TMPb[3]
*1257 TMPb[2]
*1258 TMPb[1]
*1259 TMPb[0]
*1260 add_1_root_add_0_root_add_55_2_carry[8]
*1261 add_1_root_add_0_root_add_55_2_carry[7]
*1262 add_1_root_add_0_root_add_55_2_carry[6]
*1263 add_1_root_add_0_root_add_55_2_carry[5]
*1264 add_1_root_add_0_root_add_55_2_carry[4]
*1265 add_1_root_add_0_root_add_55_2_carry[3]
*1266 add_1_root_add_0_root_add_55_2_carry[2]
*1267 add_0_root_add_0_root_add_55_2_carry[8]
*1268 add_0_root_add_0_root_add_55_2_carry[7]
*1269 add_0_root_add_0_root_add_55_2_carry[6]
*1270 add_0_root_add_0_root_add_55_2_carry[5]
*1271 add_0_root_add_0_root_add_55_2_carry[4]
*1272 add_0_root_add_0_root_add_55_2_carry[3]
*1273 add_0_root_add_0_root_add_55_2_carry[2]
*1274 add_1_root_add_0_root_add_50_2_carry[8]
*1275 add_1_root_add_0_root_add_50_2_carry[7]
*1276 add_1_root_add_0_root_add_50_2_carry[6]
*1277 add_1_root_add_0_root_add_50_2_carry[5]
*1278 add_1_root_add_0_root_add_50_2_carry[4]
*1279 add_1_root_add_0_root_add_50_2_carry[3]
*1280 add_1_root_add_0_root_add_50_2_carry[2]
*1281 add_0_root_add_0_root_add_50_2_carry[8]
*1282 add_0_root_add_0_root_add_50_2_carry[7]
*1283 add_0_root_add_0_root_add_50_2_carry[6]
*1284 add_0_root_add_0_root_add_50_2_carry[5]
*1285 add_0_root_add_0_root_add_50_2_carry[4]
*1286 add_0_root_add_0_root_add_50_2_carry[3]
*1287 add_0_root_add_0_root_add_50_2_carry[2]
*1288 FE_OFC19_mult_48_n307
*1289 FE_OFC18_mult_53_n304
*1290 FE_OFC17_mult_54_n302
*1291 FE_OFC16_mult_54_n299
*1292 FE_OFC15_mult_48_n304
*1293 FE_OFC14_mult_49_n304
*1294 FE_OFC13_mult_53_n307
*1295 FE_OFC12_mult_49_n307
*1296 FE_OFC11_q_reg2_1
*1297 FE_OFC10_q_reg2_3
*1298 FE_OFC9_q_reg2_8
*1299 FE_OFC8_q_reg2_7
*1300 FE_OFC7_q_reg1_3
*1301 FE_OFC6_q_reg2_5
*1302 FE_OFC5_mult_52_n299
*1303 FE_OFC4_q_reg1_1
*1304 FE_OFC3_mult_52_n302
*1305 FE_OFC2_q_reg1_5
*1306 FE_OFC1_q_reg1_8
*1307 FE_OFC0_q_reg1_7
*1308 FE_RC_19_0
*1309 FE_RC_18_0
*1310 FE_RC_17_0
*1311 FE_RC_16_0
*1312 FE_RC_15_0
*1313 FE_RC_14_0
*1314 FE_RC_13_0
*1315 FE_RC_12_0
*1316 FE_RC_11_0
*1317 FE_RC_10_0
*1318 FE_RC_9_0
*1319 FE_RC_8_0
*1320 FE_RC_7_0
*1321 FE_RC_6_0
*1322 FE_RC_5_0
*1323 FE_RC_4_0
*1324 FE_RC_3_0
*1325 FE_RC_2_0
*1326 FE_RC_1_0
*1327 FE_DBTC7_q_reg1_0
*1328 FE_DBTC6_q_reg1_3
*1329 FE_DBTC5_q_reg1_5
*1330 FE_DBTC4_q_reg1_7
*1331 FE_DBTC3_q_reg2_0
*1332 FE_DBTC2_q_reg2_3
*1333 FE_DBTC1_q_reg2_5
*1334 FE_DBTC0_q_reg2_7
*1335 reg_1_U19
*1336 reg_1_U18
*1337 reg_1_U17
*1338 reg_1_U16
*1339 reg_1_U15
*1340 reg_1_U14
*1341 reg_1_U13
*1342 reg_1_U12
*1343 reg_1_U11
*1344 reg_1_U10
*1345 reg_1_U9
*1346 reg_1_U8
*1347 reg_1_U7
*1348 reg_1_U6
*1349 reg_1_U5
*1350 reg_1_U4
*1351 reg_1_U3
*1352 reg_1_U2
*1353 reg_1_Q_reg_0_
*1354 reg_1_Q_reg_1_
*1355 reg_1_Q_reg_2_
*1356 reg_1_Q_reg_3_
*1357 reg_1_Q_reg_4_
*1358 reg_1_Q_reg_5_
*1359 reg_1_Q_reg_6_
*1360 reg_1_Q_reg_7_
*1361 reg_1_Q_reg_8_
*1362 reg_2_U21
*1363 reg_2_U20
*1364 reg_2_U19
*1365 reg_2_U18
*1366 reg_2_U17
*1367 reg_2_U16
*1368 reg_2_U15
*1369 reg_2_U14
*1370 reg_2_U12
*1371 reg_2_U11
*1372 reg_2_U10
*1373 reg_2_U9
*1374 reg_2_U8
*1375 reg_2_U7
*1376 reg_2_U6
*1377 reg_2_U5
*1378 reg_2_U4
*1379 reg_2_U3
*1380 reg_2_Q_reg_0_
*1381 reg_2_Q_reg_1_
*1382 reg_2_Q_reg_2_
*1383 reg_2_Q_reg_3_
*1384 reg_2_Q_reg_4_
*1385 reg_2_Q_reg_5_
*1386 reg_2_Q_reg_6_
*1387 reg_2_Q_reg_7_
*1388 reg_2_Q_reg_8_
*1389 reg_dout_U19
*1390 reg_dout_U18
*1391 reg_dout_U17
*1392 reg_dout_U16
*1393 reg_dout_U15
*1394 reg_dout_U14
*1395 reg_dout_U13
*1396 reg_dout_U12
*1397 reg_dout_U11
*1398 reg_dout_U10
*1399 reg_dout_U9
*1400 reg_dout_U8
*1401 reg_dout_U7
*1402 reg_dout_U6
*1403 reg_dout_U5
*1404 reg_dout_U4
*1405 reg_dout_U3
*1406 reg_dout_U2
*1407 reg_dout_Q_reg_0_
*1408 reg_dout_Q_reg_1_
*1409 reg_dout_Q_reg_2_
*1410 reg_dout_Q_reg_3_
*1411 reg_dout_Q_reg_4_
*1412 reg_dout_Q_reg_5_
*1413 reg_dout_Q_reg_6_
*1414 reg_dout_Q_reg_7_
*1415 reg_dout_Q_reg_8_
*1416 ff_1_Q_reg
*1417 mult_52_U351
*1418 mult_52_U350
*1419 mult_52_U349
*1420 mult_52_U348
*1421 mult_52_U347
*1422 mult_52_U346
*1423 mult_52_U345
*1424 mult_52_U344
*1425 mult_52_U343
*1426 mult_52_U342
*1427 mult_52_U341
*1428 mult_52_U340
*1429 mult_52_U339
*1430 mult_52_U338
*1431 mult_52_U337
*1432 mult_52_U336
*1433 mult_52_U335
*1434 mult_52_U334
*1435 mult_52_U333
*1436 mult_52_U332
*1437 mult_52_U331
*1438 mult_52_U330
*1439 mult_52_U329
*1440 mult_52_U328
*1441 mult_52_U327
*1442 mult_52_U326
*1443 mult_52_U325
*1444 mult_52_U324
*1445 mult_52_U322
*1446 mult_52_U321
*1447 mult_52_U320
*1448 mult_52_U319
*1449 mult_52_U318
*1450 mult_52_U317
*1451 mult_52_U316
*1452 mult_52_U315
*1453 mult_52_U314
*1454 mult_52_U313
*1455 mult_52_U312
*1456 mult_52_U311
*1457 mult_52_U310
*1458 mult_52_U309
*1459 mult_52_U308
*1460 mult_52_U307
*1461 mult_52_U306
*1462 mult_52_U305
*1463 mult_52_U303
*1464 mult_52_U302
*1465 mult_52_U301
*1466 mult_52_U300
*1467 mult_52_U299
*1468 mult_52_U298
*1469 mult_52_U297
*1470 mult_52_U296
*1471 mult_52_U295
*1472 mult_52_U294
*1473 mult_52_U293
*1474 mult_52_U292
*1475 mult_52_U291
*1476 mult_52_U290
*1477 mult_52_U289
*1478 mult_52_U288
*1479 mult_52_U287
*1480 mult_52_U285
*1481 mult_52_U284
*1482 mult_52_U283
*1483 mult_52_U282
*1484 mult_52_U281
*1485 mult_52_U280
*1486 mult_52_U279
*1487 mult_52_U278
*1488 mult_52_U277
*1489 mult_52_U276
*1490 mult_52_U275
*1491 mult_52_U274
*1492 mult_52_U273
*1493 mult_52_U272
*1494 mult_52_U271
*1495 mult_52_U270
*1496 mult_52_U268
*1497 mult_52_U267
*1498 mult_52_U266
*1499 mult_52_U265
*1500 mult_52_U264
*1501 mult_52_U263
*1502 mult_52_U262
*1503 mult_52_U261
*1504 mult_52_U260
*1505 mult_52_U259
*1506 mult_52_U258
*1507 mult_52_U257
*1508 mult_52_U256
*1509 mult_52_U255
*1510 mult_52_U254
*1511 mult_52_U253
*1512 mult_52_U252
*1513 mult_52_U251
*1514 mult_52_U250
*1515 mult_52_U249
*1516 mult_52_U248
*1517 mult_52_U247
*1518 mult_52_U246
*1519 mult_52_U245
*1520 mult_52_U244
*1521 mult_52_U243
*1522 mult_52_U242
*1523 mult_52_U241
*1524 mult_52_U240
*1525 mult_52_U239
*1526 mult_52_U238
*1527 mult_52_U237
*1528 mult_52_U236
*1529 mult_52_U235
*1530 mult_52_U234
*1531 mult_52_U233
*1532 mult_52_U232
*1533 mult_52_U231
*1534 mult_52_U230
*1535 mult_52_U229
*1536 mult_52_U228
*1537 mult_52_U227
*1538 mult_52_U226
*1539 mult_52_U225
*1540 mult_52_U224
*1541 mult_52_U223
*1542 mult_52_U222
*1543 mult_52_U221
*1544 mult_52_U220
*1545 mult_52_U219
*1546 mult_52_U218
*1547 mult_52_U217
*1548 mult_52_U216
*1549 mult_52_U215
*1550 mult_52_U214
*1551 mult_52_U213
*1552 mult_52_U50
*1553 mult_52_U49
*1554 mult_52_U48
*1555 mult_52_U47
*1556 mult_52_U46
*1557 mult_52_U45
*1558 mult_52_U44
*1559 mult_52_U43
*1560 mult_52_U42
*1561 mult_52_U41
*1562 mult_52_U40
*1563 mult_52_U39
*1564 mult_52_U36
*1565 mult_52_U35
*1566 mult_52_U34
*1567 mult_52_U32
*1568 mult_52_U31
*1569 mult_52_U30
*1570 mult_52_U29
*1571 mult_52_U28
*1572 mult_52_U27
*1573 mult_52_U25
*1574 mult_52_U24
*1575 mult_52_U23
*1576 mult_52_U22
*1577 mult_52_U20
*1578 mult_52_U19
*1579 mult_52_U10
*1580 mult_52_U9
*1581 mult_52_U8
*1582 mult_52_U7
*1583 mult_52_U6
*1584 mult_52_U5
*1585 mult_52_U4
*1586 mult_52_U3
*1587 mult_53_U356
*1588 mult_53_U355
*1589 mult_53_U354
*1590 mult_53_U353
*1591 mult_53_U352
*1592 mult_53_U351
*1593 mult_53_U350
*1594 mult_53_U349
*1595 mult_53_U348
*1596 mult_53_U347
*1597 mult_53_U346
*1598 mult_53_U345
*1599 mult_53_U344
*1600 mult_53_U343
*1601 mult_53_U342
*1602 mult_53_U341
*1603 mult_53_U340
*1604 mult_53_U339
*1605 mult_53_U338
*1606 mult_53_U337
*1607 mult_53_U336
*1608 mult_53_U335
*1609 mult_53_U334
*1610 mult_53_U333
*1611 mult_53_U332
*1612 mult_53_U331
*1613 mult_53_U330
*1614 mult_53_U329
*1615 mult_53_U327
*1616 mult_53_U326
*1617 mult_53_U325
*1618 mult_53_U324
*1619 mult_53_U323
*1620 mult_53_U322
*1621 mult_53_U321
*1622 mult_53_U320
*1623 mult_53_U319
*1624 mult_53_U318
*1625 mult_53_U317
*1626 mult_53_U316
*1627 mult_53_U315
*1628 mult_53_U314
*1629 mult_53_U313
*1630 mult_53_U312
*1631 mult_53_U311
*1632 mult_53_U310
*1633 mult_53_U308