*SPEF "IEEE 1481-1998"
*DESIGN "iir_filter"
*DATE "Fri Nov 12 18:36:53 2021"
*VENDOR "Cadence Design Systems, Inc."
*PROGRAM "Innovus"
*VERSION "17.11-s080_1"
*DESIGN_FLOW "COUPLING C" "PIN_CAP NONE" "NAME_SCOPE LOCAL"
*DIVIDER /
*DELIMITER :
*BUS_DELIMITER []
*T_UNIT 1 NS
*C_UNIT 1 PF
*R_UNIT 1 OHM
*L_UNIT 1 HENRY

// MMMC spef file for corner 'my_rc'

*NAME_MAP

*1 FE_DBTN11_q_reg1_0
*2 FE_DBTN10_q_reg1_1
*3 FE_DBTN9_q_reg1_2
*4 FE_DBTN8_q_reg1_3
*5 FE_DBTN7_q_reg1_4
*6 FE_DBTN6_q_reg1_5
*7 FE_DBTN5_q_reg2_0
*8 FE_DBTN4_q_reg2_1
*9 FE_DBTN3_q_reg2_2
*10 FE_DBTN2_q_reg2_3
*11 FE_DBTN1_q_reg2_4
*12 FE_DBTN0_q_reg2_5
*13 din[8]
*14 din[7]
*15 din[6]
*16 din[5]
*17 din[4]
*18 din[3]
*19 din[2]
*20 din[1]
*21 din[0]
*22 a1[8]
*23 a1[7]
*24 a1[6]
*25 a1[5]
*26 a1[4]
*27 a1[3]
*28 a1[2]
*29 a1[1]
*30 a1[0]
*31 a2[8]
*32 a2[7]
*33 a2[6]
*34 a2[5]
*35 a2[4]
*36 a2[3]
*37 a2[2]
*38 a2[1]
*39 a2[0]
*40 b0[8]
*41 b0[7]
*42 b0[6]
*43 b0[5]
*44 b0[4]
*45 b0[3]
*46 b0[2]
*47 b0[1]
*48 b0[0]
*49 b1[8]
*50 b1[7]
*51 b1[6]
*52 b1[5]
*53 b1[4]
*54 b1[3]
*55 b1[2]
*56 b1[1]
*57 b1[0]
*58 b2[8]
*59 b2[7]
*60 b2[6]
*61 b2[5]
*62 b2[4]
*63 b2[3]
*64 b2[2]
*65 b2[1]
*66 b2[0]
*67 dout[8]
*68 dout[7]
*69 dout[6]
*70 dout[5]
*71 dout[4]
*72 dout[3]
*73 dout[2]
*74 dout[1]
*75 clock
*76 rst_n
*77 vin
*78 vout
*79 TMPtmpa_b0_9_
*80 TMPtmpa_b0_8_
*81 TMPtmpa_b0_7_
*82 TMPtmpa_b0_6_
*83 TMPtmpa_b0_13_
*84 TMPtmpa_b0_12_
*85 TMPtmpa_b0_11_
*86 TMPtmpa_b0_10_
*87 TMPq2_b2_9_
*88 TMPq2_b2_8_
*89 TMPq2_b2_7_
*90 TMPq2_b2_6_
*91 TMPq2_b2_13_
*92 TMPq2_b2_12_
*93 TMPq2_b2_11_
*94 TMPq2_b2_10_
*95 TMPq1_b1_9_
*96 TMPq1_b1_8_
*97 TMPq1_b1_7_
*98 TMPq1_b1_6_
*99 TMPq1_b1_13_
*100 TMPq1_b1_12_
*101 TMPq1_b1_11_
*102 TMPq1_b1_10_
*103 N9
*104 N8
*105 N7
*106 N14
*107 N13
*108 N12
*109 N11
*110 N10
*111 TMPq2_a2_9_
*112 TMPq2_a2_8_
*113 TMPq2_a2_7_
*114 TMPq2_a2_6_
*115 TMPq2_a2_12_
*116 TMPq2_a2_11_
*117 TMPq2_a2_10_
*118 TMPq1_a1_9_
*119 TMPq1_a1_8_
*120 TMPq1_a1_7_
*121 TMPq1_a1_6_
*122 TMPq1_a1_12_
*123 TMPq1_a1_11_
*124 TMPq1_a1_10_
*125 N6
*126 N5
*127 N4
*128 N3
*129 N2
*130 N1
*131 N0
*132 reg_1_n21
*133 reg_1_n20
*134 reg_1_n19
*135 reg_1_n18
*136 reg_1_n17
*137 reg_1_n16
*138 reg_1_n15
*139 reg_1_n14
*140 reg_1_n13
*141 reg_1_n12
*142 reg_1_n11
*143 reg_1_n10
*144 reg_1_n9
*145 reg_1_n8
*146 reg_1_n7
*147 reg_1_n6
*148 reg_1_n5
*149 reg_1_n4
*150 reg_1_n3
*151 reg_1_n2
*152 reg_1_n1
*153 reg_2_n44
*154 reg_2_n43
*155 reg_2_n42
*156 reg_2_n41
*157 reg_2_n40
*158 reg_2_n39
*159 reg_2_n38
*160 reg_2_n37
*161 reg_2_n36
*162 reg_2_n35
*163 reg_2_n34
*164 reg_2_n33
*165 reg_2_n32
*166 reg_2_n31
*167 reg_2_n30
*168 reg_2_n29
*169 reg_2_n28
*170 reg_2_n27
*171 reg_2_n26
*172 reg_2_n25
*173 reg_2_n24
*174 reg_dout_n24
*175 reg_dout_n23
*176 reg_dout_n22
*177 reg_dout_n21
*178 reg_dout_n20
*179 reg_dout_n19
*180 reg_dout_n18
*181 reg_dout_n17
*182 reg_dout_n16
*183 reg_dout_n15
*184 reg_dout_n14
*185 reg_dout_n13
*186 reg_dout_n12
*187 reg_dout_n11
*188 reg_dout_n10
*189 reg_dout_n9
*190 reg_dout_n8
*191 reg_dout_n7
*192 reg_dout_n6
*193 reg_dout_n5
*194 reg_dout_n4
*195 reg_dout_n3
*196 reg_dout_n2
*197 reg_dout_n1
*198 ff_1_n3
*199 ff_1_n2
*200 mult_54_n184
*201 mult_54_n183
*202 mult_54_n182
*203 mult_54_n181
*204 mult_54_n180
*205 mult_54_n179
*206 mult_54_n178
*207 mult_54_n177
*208 mult_54_n176
*209 mult_54_n175
*210 mult_54_n174
*211 mult_54_n173
*212 mult_54_n172
*213 mult_54_n171
*214 mult_54_n170
*215 mult_54_n169
*216 mult_54_n168
*217 mult_54_n167
*218 mult_54_n166
*219 mult_54_n165
*220 mult_54_n164
*221 mult_54_n163
*222 mult_54_n162
*223 mult_54_n119
*224 mult_54_n118
*225 mult_54_n117
*226 mult_54_n116
*227 mult_54_n115
*228 mult_54_n113
*229 mult_54_n112
*230 mult_54_n111
*231 mult_54_n110
*232 mult_54_n109
*233 mult_54_n108
*234 mult_54_n106
*235 mult_54_n105
*236 mult_54_n104
*237 mult_54_n103
*238 mult_54_n102
*239 mult_54_n101
*240 mult_54_n100
*241 mult_54_n99
*242 mult_54_n98
*243 mult_54_n97
*244 mult_54_n95
*245 mult_54_n94
*246 mult_54_n93
*247 mult_54_n92
*248 mult_54_n91
*249 mult_54_n90
*250 mult_54_n89
*251 mult_54_n88
*252 mult_54_n87
*253 mult_54_n86
*254 mult_54_n85
*255 mult_54_n83
*256 mult_54_n82
*257 mult_54_n81
*258 mult_54_n80
*259 mult_54_n79
*260 mult_54_n78
*261 mult_54_n77
*262 mult_54_n76
*263 mult_54_n75
*264 mult_54_n74
*265 mult_54_n73
*266 mult_54_n72
*267 mult_54_n71
*268 mult_54_n70
*269 mult_54_n69
*270 mult_54_n68
*271 mult_54_n67
*272 mult_54_n66
*273 mult_54_n65
*274 mult_54_n64
*275 mult_54_n63
*276 mult_54_n62
*277 mult_54_n61
*278 mult_54_n60
*279 mult_54_n59
*280 mult_54_n58
*281 mult_54_n57
*282 mult_54_n56
*283 mult_54_n55
*284 mult_54_n54
*285 mult_54_n53
*286 mult_54_n52
*287 mult_54_n51
*288 mult_54_n50
*289 mult_54_n49
*290 mult_54_n48
*291 mult_54_n47
*292 mult_54_n46
*293 mult_54_n45
*294 mult_54_n44
*295 mult_54_n43
*296 mult_54_n42
*297 mult_54_n41
*298 mult_54_n40
*299 mult_54_n39
*300 mult_54_n38
*301 mult_54_n37
*302 mult_54_n36
*303 mult_54_n35
*304 mult_54_n34
*305 mult_54_n33
*306 mult_54_n32
*307 mult_54_n31
*308 mult_54_n30
*309 mult_54_n29
*310 mult_54_n28
*311 mult_54_n27
*312 mult_54_n26
*313 mult_54_n25
*314 mult_54_n24
*315 mult_54_n23
*316 mult_54_n22
*317 mult_54_n21
*318 mult_54_n20
*319 mult_54_n19
*320 mult_54_n18
*321 mult_54_n17
*322 mult_54_n16
*323 mult_54_n15
*324 mult_54_n14
*325 mult_54_n13
*326 mult_54_n8
*327 mult_54_n7
*328 mult_54_n6
*329 mult_54_n5
*330 mult_54_n4
*331 mult_54_n3
*332 mult_54_n2
*333 mult_54_n1
*334 mult_55_n184
*335 mult_55_n183
*336 mult_55_n182
*337 mult_55_n181
*338 mult_55_n180
*339 mult_55_n179
*340 mult_55_n178
*341 mult_55_n177
*342 mult_55_n176
*343 mult_55_n175
*344 mult_55_n174
*345 mult_55_n173
*346 mult_55_n172
*347 mult_55_n169
*348 mult_55_n166
*349 mult_55_n164
*350 mult_55_n162
*351 mult_55_n119
*352 mult_55_n118
*353 mult_55_n117
*354 mult_55_n116
*355 mult_55_n115
*356 mult_55_n113
*357 mult_55_n112
*358 mult_55_n111
*359 mult_55_n110
*360 mult_55_n109
*361 mult_55_n108
*362 mult_55_n106
*363 mult_55_n105
*364 mult_55_n104
*365 mult_55_n103
*366 mult_55_n102
*367 mult_55_n101
*368 mult_55_n100
*369 mult_55_n99
*370 mult_55_n98
*371 mult_55_n97
*372 mult_55_n95
*373 mult_55_n94
*374 mult_55_n93
*375 mult_55_n92
*376 mult_55_n91
*377 mult_55_n90
*378 mult_55_n89
*379 mult_55_n88
*380 mult_55_n87
*381 mult_55_n86
*382 mult_55_n85
*383 mult_55_n83
*384 mult_55_n82
*385 mult_55_n81
*386 mult_55_n80
*387 mult_55_n79
*388 mult_55_n78
*389 mult_55_n77
*390 mult_55_n76
*391 mult_55_n75
*392 mult_55_n74
*393 mult_55_n73
*394 mult_55_n72
*395 mult_55_n71
*396 mult_55_n70
*397 mult_55_n69
*398 mult_55_n68
*399 mult_55_n67
*400 mult_55_n66
*401 mult_55_n65
*402 mult_55_n64
*403 mult_55_n63
*404 mult_55_n62
*405 mult_55_n61
*406 mult_55_n60
*407 mult_55_n59
*408 mult_55_n58
*409 mult_55_n57
*410 mult_55_n56
*411 mult_55_n55
*412 mult_55_n54
*413 mult_55_n53
*414 mult_55_n52
*415 mult_55_n51
*416 mult_55_n50
*417 mult_55_n49
*418 mult_55_n48
*419 mult_55_n47
*420 mult_55_n46
*421 mult_55_n45
*422 mult_55_n44
*423 mult_55_n43
*424 mult_55_n42
*425 mult_55_n41
*426 mult_55_n40
*427 mult_55_n39
*428 mult_55_n38
*429 mult_55_n37
*430 mult_55_n36
*431 mult_55_n35
*432 mult_55_n34
*433 mult_55_n33
*434 mult_55_n32
*435 mult_55_n31
*436 mult_55_n30
*437 mult_55_n29
*438 mult_55_n28
*439 mult_55_n27
*440 mult_55_n26
*441 mult_55_n25
*442 mult_55_n24
*443 mult_55_n23
*444 mult_55_n22
*445 mult_55_n21
*446 mult_55_n20
*447 mult_55_n19
*448 mult_55_n18
*449 mult_55_n17
*450 mult_55_n16
*451 mult_55_n15
*452 mult_55_n14
*453 mult_55_n13
*454 mult_55_n8
*455 mult_55_n7
*456 mult_55_n6
*457 mult_55_n5
*458 mult_55_n4
*459 mult_55_n3
*460 mult_55_n2
*461 mult_55_n1
*462 mult_56_n184
*463 mult_56_n183
*464 mult_56_n182
*465 mult_56_n181
*466 mult_56_n180
*467 mult_56_n179
*468 mult_56_n178
*469 mult_56_n177
*470 mult_56_n176
*471 mult_56_n175
*472 mult_56_n174
*473 mult_56_n173
*474 mult_56_n172
*475 mult_56_n169
*476 mult_56_n166
*477 mult_56_n164
*478 mult_56_n162
*479 mult_56_n119
*480 mult_56_n118
*481 mult_56_n117
*482 mult_56_n116
*483 mult_56_n115
*484 mult_56_n113
*485 mult_56_n112
*486 mult_56_n111
*487 mult_56_n110
*488 mult_56_n109
*489 mult_56_n108
*490 mult_56_n106
*491 mult_56_n105
*492 mult_56_n104
*493 mult_56_n103
*494 mult_56_n102
*495 mult_56_n101
*496 mult_56_n100
*497 mult_56_n99
*498 mult_56_n98
*499 mult_56_n97
*500 mult_56_n95
*501 mult_56_n94
*502 mult_56_n93
*503 mult_56_n92
*504 mult_56_n91
*505 mult_56_n90
*506 mult_56_n89
*507 mult_56_n88
*508 mult_56_n87
*509 mult_56_n86
*510 mult_56_n85
*511 mult_56_n83
*512 mult_56_n82
*513 mult_56_n81
*514 mult_56_n80
*515 mult_56_n79
*516 mult_56_n78
*517 mult_56_n77
*518 mult_56_n76
*519 mult_56_n75
*520 mult_56_n74
*521 mult_56_n73
*522 mult_56_n72
*523 mult_56_n71
*524 mult_56_n70
*525 mult_56_n69
*526 mult_56_n68
*527 mult_56_n67
*528 mult_56_n66
*529 mult_56_n65
*530 mult_56_n64
*531 mult_56_n63
*532 mult_56_n62
*533 mult_56_n61
*534 mult_56_n60
*535 mult_56_n59
*536 mult_56_n58
*537 mult_56_n57
*538 mult_56_n56
*539 mult_56_n55
*540 mult_56_n54
*541 mult_56_n53
*542 mult_56_n52
*543 mult_56_n51
*544 mult_56_n50
*545 mult_56_n49
*546 mult_56_n48
*547 mult_56_n47
*548 mult_56_n46
*549 mult_56_n45
*550 mult_56_n44
*551 mult_56_n43
*552 mult_56_n42
*553 mult_56_n41
*554 mult_56_n40
*555 mult_56_n39
*556 mult_56_n38
*557 mult_56_n37
*558 mult_56_n36
*559 mult_56_n35
*560 mult_56_n34
*561 mult_56_n33
*562 mult_56_n32
*563 mult_56_n31
*564 mult_56_n30
*565 mult_56_n29
*566 mult_56_n28
*567 mult_56_n27
*568 mult_56_n26
*569 mult_56_n25
*570 mult_56_n24
*571 mult_56_n23
*572 mult_56_n22
*573 mult_56_n21
*574 mult_56_n20
*575 mult_56_n19
*576 mult_56_n18
*577 mult_56_n17
*578 mult_56_n16
*579 mult_56_n15
*580 mult_56_n14
*581 mult_56_n13
*582 mult_56_n8
*583 mult_56_n7
*584 mult_56_n6
*585 mult_56_n5
*586 mult_56_n4
*587 mult_56_n3
*588 mult_56_n2
*589 mult_56_n1
*590 add_1_root_add_0_root_add_57_2_n1
*591 add_0_root_add_0_root_add_57_2_n2
*592 mult_50_n184
*593 mult_50_n183
*594 mult_50_n182
*595 mult_50_n181
*596 mult_50_n180
*597 mult_50_n179
*598 mult_50_n178
*599 mult_50_n177
*600 mult_50_n176
*601 mult_50_n175
*602 mult_50_n174
*603 mult_50_n173
*604 mult_50_n172
*605 mult_50_n171
*606 mult_50_n170
*607 mult_50_n167
*608 mult_50_n164
*609 mult_50_n162
*610 mult_50_n160
*611 mult_50_n119
*612 mult_50_n118
*613 mult_50_n117
*614 mult_50_n116
*615 mult_50_n115
*616 mult_50_n113
*617 mult_50_n112
*618 mult_50_n111
*619 mult_50_n110
*620 mult_50_n109
*621 mult_50_n108
*622 mult_50_n106
*623 mult_50_n105
*624 mult_50_n104
*625 mult_50_n103
*626 mult_50_n102
*627 mult_50_n101
*628 mult_50_n100
*629 mult_50_n99
*630 mult_50_n98
*631 mult_50_n97
*632 mult_50_n95
*633 mult_50_n94
*634 mult_50_n93
*635 mult_50_n92
*636 mult_50_n91
*637 mult_50_n90
*638 mult_50_n89
*639 mult_50_n88
*640 mult_50_n87
*641 mult_50_n86
*642 mult_50_n85
*643 mult_50_n83
*644 mult_50_n82
*645 mult_50_n81
*646 mult_50_n80
*647 mult_50_n79
*648 mult_50_n78
*649 mult_50_n77
*650 mult_50_n76
*651 mult_50_n75
*652 mult_50_n74
*653 mult_50_n72
*654 mult_50_n71
*655 mult_50_n70
*656 mult_50_n69
*657 mult_50_n68
*658 mult_50_n67
*659 mult_50_n66
*660 mult_50_n65
*661 mult_50_n64
*662 mult_50_n63
*663 mult_50_n62
*664 mult_50_n61
*665 mult_50_n60
*666 mult_50_n59
*667 mult_50_n58
*668 mult_50_n57
*669 mult_50_n56
*670 mult_50_n55
*671 mult_50_n54
*672 mult_50_n53
*673 mult_50_n52
*674 mult_50_n51
*675 mult_50_n50
*676 mult_50_n49
*677 mult_50_n48
*678 mult_50_n47
*679 mult_50_n46
*680 mult_50_n45
*681 mult_50_n44
*682 mult_50_n43
*683 mult_50_n42
*684 mult_50_n41
*685 mult_50_n40
*686 mult_50_n39
*687 mult_50_n38
*688 mult_50_n37
*689 mult_50_n36
*690 mult_50_n35
*691 mult_50_n34
*692 mult_50_n33
*693 mult_50_n32
*694 mult_50_n31
*695 mult_50_n30
*696 mult_50_n29
*697 mult_50_n28
*698 mult_50_n27
*699 mult_50_n26
*700 mult_50_n25
*701 mult_50_n24
*702 mult_50_n23
*703 mult_50_n22
*704 mult_50_n21
*705 mult_50_n20
*706 mult_50_n19
*707 mult_50_n18
*708 mult_50_n17
*709 mult_50_n16
*710 mult_50_n15
*711 mult_50_n14
*712 mult_50_n13
*713 mult_50_n8
*714 mult_50_n7
*715 mult_50_n6
*716 mult_50_n5
*717 mult_50_n4
*718 mult_50_n3
*719 mult_50_n2
*720 mult_51_n184
*721 mult_51_n183
*722 mult_51_n182
*723 mult_51_n181
*724 mult_51_n180
*725 mult_51_n179
*726 mult_51_n178
*727 mult_51_n177
*728 mult_51_n176
*729 mult_51_n175
*730 mult_51_n174
*731 mult_51_n173
*732 mult_51_n172
*733 mult_51_n171
*734 mult_51_n170
*735 mult_51_n167
*736 mult_51_n164
*737 mult_51_n162
*738 mult_51_n160
*739 mult_51_n119
*740 mult_51_n118
*741 mult_51_n117
*742 mult_51_n116
*743 mult_51_n115
*744 mult_51_n113
*745 mult_51_n112
*746 mult_51_n111
*747 mult_51_n110
*748 mult_51_n109
*749 mult_51_n108
*750 mult_51_n106
*751 mult_51_n105
*752 mult_51_n104
*753 mult_51_n103
*754 mult_51_n102
*755 mult_51_n101
*756 mult_51_n100
*757 mult_51_n99
*758 mult_51_n98
*759 mult_51_n97
*760 mult_51_n95
*761 mult_51_n94
*762 mult_51_n93
*763 mult_51_n92
*764 mult_51_n91
*765 mult_51_n90
*766 mult_51_n89
*767 mult_51_n88
*768 mult_51_n87
*769 mult_51_n86
*770 mult_51_n85
*771 mult_51_n83
*772 mult_51_n82
*773 mult_51_n81
*774 mult_51_n80
*775 mult_51_n79
*776 mult_51_n78
*777 mult_51_n77
*778 mult_51_n76
*779 mult_51_n75
*780 mult_51_n74
*781 mult_51_n72
*782 mult_51_n71
*783 mult_51_n70
*784 mult_51_n69
*785 mult_51_n68
*786 mult_51_n67
*787 mult_51_n66
*788 mult_51_n65
*789 mult_51_n64
*790 mult_51_n63
*791 mult_51_n62
*792 mult_51_n61
*793 mult_51_n60
*794 mult_51_n59
*795 mult_51_n58
*796 mult_51_n57
*797 mult_51_n56
*798 mult_51_n55
*799 mult_51_n54
*800 mult_51_n53
*801 mult_51_n52
*802 mult_51_n51
*803 mult_51_n50
*804 mult_51_n49
*805 mult_51_n48
*806 mult_51_n47
*807 mult_51_n46
*808 mult_51_n45
*809 mult_51_n44
*810 mult_51_n43
*811 mult_51_n42
*812 mult_51_n41
*813 mult_51_n40
*814 mult_51_n39
*815 mult_51_n38
*816 mult_51_n37
*817 mult_51_n36
*818 mult_51_n35
*819 mult_51_n34
*820 mult_51_n33
*821 mult_51_n32
*822 mult_51_n31
*823 mult_51_n30
*824 mult_51_n29
*825 mult_51_n28
*826 mult_51_n27
*827 mult_51_n26
*828 mult_51_n25
*829 mult_51_n24
*830 mult_51_n23
*831 mult_51_n22
*832 mult_51_n21
*833 mult_51_n20
*834 mult_51_n19
*835 mult_51_n18
*836 mult_51_n17
*837 mult_51_n16
*838 mult_51_n15
*839 mult_51_n14
*840 mult_51_n13
*841 mult_51_n8
*842 mult_51_n7
*843 mult_51_n6
*844 mult_51_n5
*845 mult_51_n4
*846 mult_51_n3
*847 mult_51_n2
*848 add_1_root_add_0_root_add_52_2_n2
*849 add_0_root_add_0_root_add_52_2_n1
*850 q_reg1[6]
*851 q_reg1[5]
*852 q_reg1[4]
*853 q_reg1[3]
*854 q_reg1[2]
*855 q_reg1[1]
*856 q_reg1[0]
*857 q_reg2[6]
*858 q_reg2[5]
*859 q_reg2[4]
*860 q_reg2[3]
*861 q_reg2[2]
*862 q_reg2[1]
*863 q_reg2[0]
*864 TMPa[6]
*865 TMPa[5]
*866 TMPa[4]
*867 TMPa[3]
*868 TMPa[2]
*869 TMPa[1]
*870 TMPa[0]
*871 TMPb[7]
*872 TMPb[6]
*873 TMPb[5]
*874 TMPb[4]
*875 TMPb[3]
*876 TMPb[2]
*877 TMPb[1]
*878 TMPb[0]
*879 add_1_root_add_0_root_add_57_2_carry[7]
*880 add_1_root_add_0_root_add_57_2_carry[6]
*881 add_1_root_add_0_root_add_57_2_carry[5]
*882 add_1_root_add_0_root_add_57_2_carry[4]
*883 add_1_root_add_0_root_add_57_2_carry[3]
*884 add_1_root_add_0_root_add_57_2_carry[2]
*885 add_0_root_add_0_root_add_57_2_carry[7]
*886 add_0_root_add_0_root_add_57_2_carry[6]
*887 add_0_root_add_0_root_add_57_2_carry[5]
*888 add_0_root_add_0_root_add_57_2_carry[4]
*889 add_0_root_add_0_root_add_57_2_carry[3]
*890 add_0_root_add_0_root_add_57_2_carry[2]
*891 add_1_root_add_0_root_add_52_2_carry[6]
*892 add_1_root_add_0_root_add_52_2_carry[5]
*893 add_1_root_add_0_root_add_52_2_carry[4]
*894 add_1_root_add_0_root_add_52_2_carry[3]
*895 add_1_root_add_0_root_add_52_2_carry[2]
*896 add_0_root_add_0_root_add_52_2_carry[6]
*897 add_0_root_add_0_root_add_52_2_carry[5]
*898 add_0_root_add_0_root_add_52_2_carry[4]
*899 add_0_root_add_0_root_add_52_2_carry[3]
*900 add_0_root_add_0_root_add_52_2_carry[2]
*901 dout[0]
*902 FE_RC_1_0
*903 FE_DBTC11_q_reg1_0
*904 FE_DBTC10_q_reg1_1
*905 FE_DBTC9_q_reg1_2
*906 FE_DBTC8_q_reg1_3
*907 FE_DBTC7_q_reg1_4
*908 FE_DBTC6_q_reg1_5
*909 FE_DBTC5_q_reg2_0
*910 FE_DBTC4_q_reg2_1
*911 FE_DBTC3_q_reg2_2
*912 FE_DBTC2_q_reg2_3
*913 FE_DBTC1_q_reg2_4
*914 FE_DBTC0_q_reg2_5
*915 reg_1_U15
*916 reg_1_U14
*917 reg_1_U13
*918 reg_1_U12
*919 reg_1_U11
*920 reg_1_U10
*921 reg_1_U9
*922 reg_1_U8
*923 reg_1_U7
*924 reg_1_U6
*925 reg_1_U5
*926 reg_1_U4
*927 reg_1_U3
*928 reg_1_U2
*929 reg_1_Q_reg_0_
*930 reg_1_Q_reg_1_
*931 reg_1_Q_reg_2_
*932 reg_1_Q_reg_3_
*933 reg_1_Q_reg_4_
*934 reg_1_Q_reg_5_
*935 reg_1_Q_reg_6_
*936 reg_2_U16
*937 reg_2_U15
*938 reg_2_U14
*939 reg_2_U13
*940 reg_2_U12
*941 reg_2_U11
*942 reg_2_U10
*943 reg_2_U9
*944 reg_2_U8
*945 reg_2_U7
*946 reg_2_U6
*947 reg_2_U5
*948 reg_2_U4
*949 reg_2_U3
*950 reg_2_Q_reg_0_
*951 reg_2_Q_reg_1_
*952 reg_2_Q_reg_2_
*953 reg_2_Q_reg_3_
*954 reg_2_Q_reg_4_
*955 reg_2_Q_reg_5_
*956 reg_2_Q_reg_6_
*957 reg_dout_U17
*958 reg_dout_U16
*959 reg_dout_U15
*960 reg_dout_U14
*961 reg_dout_U13
*962 reg_dout_U12
*963 reg_dout_U11
*964 reg_dout_U10
*965 reg_dout_U9
*966 reg_dout_U8
*967 reg_dout_U7
*968 reg_dout_U6
*969 reg_dout_U5
*970 reg_dout_U4
*971 reg_dout_U3
*972 reg_dout_U2
*973 reg_dout_Q_reg_0_
*974 reg_dout_Q_reg_1_
*975 reg_dout_Q_reg_2_
*976 reg_dout_Q_reg_3_
*977 reg_dout_Q_reg_4_
*978 reg_dout_Q_reg_5_
*979 reg_dout_Q_reg_6_
*980 reg_dout_Q_reg_7_
*981 ff_1_Q_reg
*982 mult_54_U178
*983 mult_54_U177
*984 mult_54_U176
*985 mult_54_U175
*986 mult_54_U174
*987 mult_54_U173
*988 mult_54_U172
*989 mult_54_U171
*990 mult_54_U170
*991 mult_54_U169
*992 mult_54_U168
*993 mult_54_U167
*994 mult_54_U166
*995 mult_54_U165
*996 mult_54_U164
*997 mult_54_U163
*998 mult_54_U162
*999 mult_54_U161
*1000 mult_54_U160
*1001 mult_54_U159
*1002 mult_54_U158
*1003 mult_54_U157
*1004 mult_54_U156
*1005 mult_54_U155
*1006 mult_54_U154
*1007 mult_54_U153
*1008 mult_54_U152
*1009 mult_54_U151
*1010 mult_54_U150
*1011 mult_54_U149
*1012 mult_54_U148
*1013 mult_54_U147
*1014 mult_54_U146
*1015 mult_54_U145
*1016 mult_54_U144
*1017 mult_54_U143
*1018 mult_54_U142
*1019 mult_54_U141
*1020 mult_54_U140
*1021 mult_54_U139
*1022 mult_54_U138
*1023 mult_54_U137
*1024 mult_54_U136
*1025 mult_54_U135
*1026 mult_54_U134
*1027 mult_54_U133
*1028 mult_54_U132
*1029 mult_54_U131
*1030 mult_54_U130
*1031 mult_54_U129
*1032 mult_54_U128
*1033 mult_54_U127
*1034 mult_54_U126
*1035 mult_54_U125
*1036 mult_54_U124
*1037 mult_54_U123
*1038 mult_54_U122
*1039 mult_54_U121
*1040 mult_54_U120
*1041 mult_54_U119
*1042 mult_54_U118
*1043 mult_54_U117
*1044 mult_54_U116
*1045 mult_54_U115
*1046 mult_54_U114
*1047 mult_54_U113
*1048 mult_54_U112
*1049 mult_54_U111
*1050 mult_54_U110
*1051 mult_54_U109
*1052 mult_54_U44
*1053 mult_54_U43
*1054 mult_54_U42
*1055 mult_54_U41
*1056 mult_54_U40
*1057 mult_54_U39
*1058 mult_54_U38
*1059 mult_54_U37
*1060 mult_54_U36
*1061 mult_54_U35
*1062 mult_54_U34
*1063 mult_54_U33
*1064 mult_54_U32
*1065 mult_54_U31
*1066 mult_54_U30
*1067 mult_54_U27
*1068 mult_54_U26
*1069 mult_54_U25
*1070 mult_54_U24
*1071 mult_54_U23
*1072 mult_54_U22
*1073 mult_54_U21
*1074 mult_54_U20
*1075 mult_54_U19
*1076 mult_54_U18
*1077 mult_54_U17
*1078 mult_54_U16
*1079 mult_54_U15
*1080 mult_54_U14
*1081 mult_54_U8
*1082 mult_54_U7
*1083 mult_54_U6
*1084 mult_54_U5
*1085 mult_54_U4
*1086 mult_54_U3
*1087 mult_54_U2
*1088 mult_55_U178
*1089 mult_55_U177
*1090 mult_55_U176
*1091 mult_55_U175
*1092 mult_55_U174
*1093 mult_55_U173
*1094 mult_55_U172
*1095 mult_55_U171
*1096 mult_55_U170
*1097 mult_55_U169
*1098 mult_55_U168
*1099 mult_55_U167
*1100 mult_55_U166
*1101 mult_55_U165
*1102 mult_55_U164
*1103 mult_55_U163
*1104 mult_55_U162
*1105 mult_55_U161
*1106 mult_55_U160
*1107 mult_55_U159
*1108 mult_55_U158
*1109 mult_55_U157
*1110 mult_55_U156
*1111 mult_55_U155
*1112 mult_55_U154
*1113 mult_55_U153
*1114 mult_55_U152
*1115 mult_55_U151
*1116 mult_55_U150
*1117 mult_55_U149
*1118 mult_55_U148
*1119 mult_55_U147
*1120 mult_55_U146
*1121 mult_55_U145
*1122 mult_55_U144
*1123 mult_55_U143
*1124 mult_55_U142
*1125 mult_55_U141
*1126 mult_55_U140
*1127 mult_55_U139
*1128 mult_55_U138
*1129 mult_55_U137
*1130 mult_55_U136
*1131 mult_55_U135
*1132 mult_55_U134
*1133 mult_55_U133
*1134 mult_55_U132
*1135 mult_55_U131
*1136 mult_55_U130
*1137 mult_55_U129
*1138 mult_55_U128
*1139 mult_55_U127
*1140 mult_55_U126
*1141 mult_55_U125
*1142 mult_55_U124
*1143 mult_55_U123
*1144 mult_55_U119
*1145 mult_55_U118
*1146 mult_55_U117
*1147 mult_55_U113
*1148 mult_55_U112
*1149 mult_55_U111
*1150 mult_55_U110
*1151 mult_55_U109
*1152 mult_55_U44
*1153 mult_55_U43
*1154 mult_55_U42
*1155 mult_55_U41
*1156 mult_55_U40
*1157 mult_55_U39
*1158 mult_55_U38
*1159 mult_55_U37
*1160 mult_55_U36
*1161 mult_55_U35
*1162 mult_55_U34
*1163 mult_55_U33
*1164 mult_55_U32
*1165 mult_55_U31
*1166 mult_55_U30
*1167 mult_55_U27
*1168 mult_55_U26
*1169 mult_55_U25
*1170 mult_55_U24
*1171 mult_55_U23
*1172 mult_55_U22
*1173 mult_55_U21
*1174 mult_55_U20
*1175 mult_55_U19
*1176 mult_55_U18
*1177 mult_55_U17
*1178 mult_55_U16
*1179 mult_55_U15
*1180 mult_55_U14
*1181 mult_55_U8
*1182 mult_55_U7
*1183 mult_55_U6
*1184 mult_55_U5
*1185 mult_55_U4
*1186 mult_55_U3
*1187 mult_55_U2
*1188 mult_56_U178
*1189 mult_56_U177
*1190 mult_56_U176
*1191 mult_56_U175
*1192 mult_56_U174
*1193 mult_56_U173
*1194 mult_56_U172
*1195 mult_56_U171
*1196 mult_56_U170
*1197 mult_56_U169
*1198 mult_56_U168
*1199 mult_56_U167
*1200 mult_56_U166
*1201 mult_56_U165
*1202 mult_56_U164
*1203 mult_56_U163
*1204 mult_56_U162
*1205 mult_56_U161
*1206 mult_56_U160
*1207 mult_56_U159
*1208 mult_56_U158
*1209 mult_56_U157
*1210 mult_56_U156
*1211 mult_56_U155
*1212 mult_56_U154
*1213 mult_56_U153
*1214 mult_56_U152
*1215 mult_56_U151
*1216 mult_56_U150
*1217 mult_56_U149
*1218 mult_56_U148
*1219 mult_56_U147
*1220 mult_56_U146
*1221 mult_56_U145
*1222 mult_56_U144
*1223 mult_56_U143
*1224 mult_56_U142
*1225 mult_56_U141
*1226 mult_56_U140
*1227 mult_56_U139
*1228 mult_56_U138
*1229 mult_56_U137
*1230 mult_56_U136
*1231 mult_56_U135
*1232 mult_56_U134
*1233 mult_56_U133
*1234 mult_56_U132
*1235 mult_56_U131
*1236 mult_56_U130
*1237 mult_56_U129
*1238 mult_56_U128
*1239 mult_56_U127
*1240 mult_56_U126
*1241 mult_56_U125
*1242 mult_56_U124
*1243 mult_56_U123
*1244 mult_56_U119
*1245 mult_56_U116
*1246 mult_56_U115
*1247 mult_56_U113
*1248 mult_56_U112
*1249 mult_56_U111
*1250 mult_56_U110
*1251 mult_56_U109
*1252 mult_56_U44
*1253 mult_56_U43
*1254 mult_56_U42
*1255 mult_56_U41
*1256 mult_56_U40
*1257 mult_56_U39
*1258 mult_56_U38
*1259 mult_56_U37
*1260 mult_56_U36
*1261 mult_56_U35
*1262 mult_56_U34
*1263 mult_56_U33
*1264 mult_56_U32
*1265 mult_56_U31
*1266 mult_56_U30
*1267 mult_56_U27
*1268 mult_56_U26
*1269 mult_56_U25
*1270 mult_56_U24
*1271 mult_56_U23
*1272 mult_56_U22
*1273 mult_56_U21
*1274 mult_56_U20
*1275 mult_56_U19
*1276 mult_56_U18
*1277 mult_56_U17
*1278 mult_56_U16
*1279 mult_56_U15
*1280 mult_56_U14
*1281 mult_56_U8
*1282 mult_56_U7
*1283 mult_56_U6
*1284 mult_56_U5
*1285 mult_56_U4
*1286 mult_56_U3
*1287 mult_56_U2
*1288 add_1_root_add_0_root_add_57_2_U2
*1289 add_1_root_add_0_root_add_57_2_U1
*1290 add_1_root_add_0_root_add_57_2_U1_1
*1291 add_1_root_add_0_root_add_57_2_U1_2
*1292 add_1_root_add_0_root_add_57_2_U1_3
*1293 add_1_root_add_0_root_add_57_2_U1_4
*1294 add_1_root_add_0_root_add_57_2_U1_5
*1295 add_1_root_add_0_root_add_57_2_U1_6
*1296 add_1_root_add_0_root_add_57_2_U1_7
*1297 add_0_root_add_0_root_add_57_2_U2
*1298 add_0_root_add_0_root_add_57_2_U1
*1299 add_0_root_add_0_root_add_57_2_U1_1
*1300 add_0_root_add_0_root_add_57_2_U1_2
*1301 add_0_root_add_0_root_add_57_2_U1_3
*1302 add_0_root_add_0_root_add_57_2_U1_4
*1303 add_0_root_add_0_root_add_57_2_U1_5
*1304 add_0_root_add_0_root_add_57_2_U1_6
*1305 add_0_root_add_0_root_add_57_2_U1_7
*1306 mult_50_U179
*1307 mult_50_U178
*1308 mult_50_U177
*1309 mult_50_U176
*1310 mult_50_U175
*1311 mult_50_U174
*1312 mult_50_U173
*1313 mult_50_U172
*1314 mult_50_U171
*1315 mult_50_U170
*1316 mult_50_U169
*1317 mult_50_U168
*1318 mult_50_U167
*1319 mult_50_U166
*1320 mult_50_U165
*1321 mult_50_U164
*1322 mult_50_U163
*1323 mult_50_U162
*1324 mult_50_U161
*1325 mult_50_U160
*1326 mult_50_U159
*1327 mult_50_U158
*1328 mult_50_U157
*1329 mult_50_U156
*1330 mult_50_U155
*1331 mult_50_U154
*1332 mult_50_U153
*1333 mult_50_U152
*1334 mult_50_U151
*1335 mult_50_U150
*1336 mult_50_U149
*1337 mult_50_U148
*1338 mult_50_U147
*1339 mult_50_U146
*1340 mult_50_U145
*1341 mult_50_U144
*1342 mult_50_U143
*1343 mult_50_U142
*1344 mult_50_U141
*1345 mult_50_U140
*1346 mult_50_U139
*1347 mult_50_U138
*1348 mult_50_U137
*1349 mult_50_U136
*1350 mult_50_U135
*1351 mult_50_U134
*1352 mult_50_U133
*1353 mult_50_U132
*1354 mult_50_U131
*1355 mult_50_U130
*1356 mult_50_U129
*1357 mult_50_U128
*1358 mult_50_U127
*1359 mult_50_U126
*1360 mult_50_U125
*1361 mult_50_U118
*1362 mult_50_U117
*1363 mult_50_U116
*1364 mult_50_U115
*1365 mult_50_U114
*1366 mult_50_U113
*1367 mult_50_U112
*1368 mult_50_U111
*1369 mult_50_U110
*1370 mult_50_U109
*1371 mult_50_U44
*1372 mult_50_U43
*1373 mult_50_U42
*1374 mult_50_U41
*1375 mult_50_U40
*1376 mult_50_U39
*1377 mult_50_U38
*1378 mult_50_U37
*1379 mult_50_U36
*1380 mult_50_U35
*1381 mult_50_U34
*1382 mult_50_U33
*1383 mult_50_U32
*1384 mult_50_U31
*1385 mult_50_U30
*1386 mult_50_U27
*1387 mult_50_U26
*1388 mult_50_U25
*1389 mult_50_U24
*1390 mult_50_U23
*1391 mult_50_U22
*1392 mult_50_U21
*1393 mult_50_U20
*1394 mult_50_U19
*1395 mult_50_U18
*1396 mult_50_U17
*1397 mult_50_U16
*1398 mult_50_U15
*1399 mult_50_U14
*1400 mult_50_U8
*1401 mult_50_U7
*1402 mult_50_U6
*1403 mult_50_U5
*1404 mult_50_U4
*1405 mult_50_U3
*1406 mult_51_U179
*1407 mult_51_U178
*1408 mult_51_U177
*1409 mult_51_U176
*1410 mult_51_U175
*1411 mult_51_U174
*1412 mult_51_U173
*1413 mult_51_U172
*1414 mult_51_U171
*1415 mult_51_U170
*1416 mult_51_U169
*1417 mult_51_U168
*1418 mult_51_U167
*1419 mult_51_U166
*1420 mult_51_U165
*1421 mult_51_U164
*1422 mult_51_U163
*1423 mult_51_U162
*1424 mult_51_U161
*1425 mult_51_U160
*1426 mult_51_U159
*1427 mult_51_U158
*1428 mult_51_U157
*1429 mult_51_U156
*1430 mult_51_U155
*1431 mult_51_U154
*1432 mult_51_U153
*1433 mult_51_U152
*1434 mult_51_U151
*1435 mult_51_U150
*1436 mult_51_U149
*1437 mult_51_U148
*1438 mult_51_U147
*1439 mult_51_U146
*1440 mult_51_U145
*1441 mult_51_U144
*1442 mult_51_U143
*1443 mult_51_U142
*1444 mult_51_U141
*1445 mult_51_U140
*1446 mult_51_U139
*1447 mult_51_U138
*1448 mult_51_U137
*1449 mult_51_U136
*1450 mult_51_U135
*1451 mult_51_U134
*1452 mult_51_U133
*1453 mult_51_U132
*1454 mult_51_U131
*1455 mult_51_U130
*1456 mult_51_U129
*1457 mult_51_U128
*1458 mult_51_U127
*1459 mult_51_U126
*1460 mult_51_U125
*1461 mult_51_U124
*1462 mult_51_U123
*1463 mult_51_U122
*1464 mult_51_U118
*1465 mult_51_U115
*1466 mult_51_U114
*1467 mult_51_U112
*1468 mult_51_U111
*1469 mult_51_U110
*1470 mult_51_U109
*1471 mult_51_U44
*1472 mult_51_U43
*1473 mult_51_U42
*1474 mult_51_U41
*1475 mult_51_U40
*1476 mult_51_U39
*1477 mult_51_U38
*1478 mult_51_U37
*1479 mult_51_U36
*1480 mult_51_U35
*1481 mult_51_U34
*1482 mult_51_U33
*1483 mult_51_U32
*1484 mult_51_U31
*1485 mult_51_U30
*1486 mult_51_U27
*1487 mult_51_U26
*1488 mult_51_U25
*1489 mult_51_U24
*1490 mult_51_U23
*1491 mult_51_U22
*1492 mult_51_U21
*1493 mult_51_U20
*1494 mult_51_U19
*1495 mult_51_U18
*1496 mult_51_U17
*1497 mult_51_U16
*1498 mult_51_U15
*1499 mult_51_U14
*1500 mult_51_U8
*1501 mult_51_U7
*1502 mult_51_U6
*1503 mult_51_U5
*1504 mult_51_U4
*1505 mult_51_U3
*1506 add_1_root_add_0_root_add_52_2_U2
*1507 add_1_root_add_0_root_add_52_2_U1
*1508 add_1_root_add_0_root_add_52_2_U1_1
*1509 add_1_root_add_0_root_add_52_2_U1_2
*1510 add_1_root_add_0_root_add_52_2_U1_3
*1511 add_1_root_add_0_root_add_52_2_U1_4
*1512 add_1_root_add_0_root_add_52_2_U1_5
*1513 add_1_root_add_0_root_add_52_2_U1_6
*1514 add_0_root_add_0_root_add_52_2_U2
*1515 add_0_root_add_0_root_add_52_2_U1
*1516 add_0_root_add_0_root_add_52_2_U1_1
*1517 add_0_root_add_0_root_add_52_2_U1_2
*1518 add_0_root_add_0_root_add_52_2_U1_3
*1519 add_0_root_add_0_root_add_52_2_U1_4
*1520 add_0_root_add_0_root_add_52_2_U1_5
*1521 add_0_root_add_0_root_add_52_2_U1_6


*PORTS

*75 I *C 0 0
*76 I *C 0 0
*13 I *C 0 0
*14 I *C 0 0
*15 I *C 0 0
*16 I *C 0 0
*17 I *C 0 0
*18 I *C 0 0
*19 I *C 0 0
*20 I *C 0 0
*21 I *C 0 0
*22 I *C 0 0
*23 I *C 0 0
*24 I *C 0 0
*25 I *C 0 0
*26 I *C 0 0
*27 I *C 0 0
*28 I *C 0 0
*29 I *C 0 0
*30 I *C 0 0
*31 I *C 0 0
*32 I *C 0 0
*33 I *C 0 0
*34 I *C 0 0
*35 I *C 0 0
*36 I *C 0 0
*37 I *C 0 0
*38 I *C 0 0
*39 I *C 0 0
*40 I *C 0 0
*41 I *C 0 0
*42 I *C 0 0
*43 I *C 0 0
*44 I *C 0 0
*45 I *C 0 0
*46 I *C 0 0
*47 I *C 0 0
*48 I *C 0 0
*49 I *C 0 0
*50 I *C 0 0
*51 I *C 0 0
*52 I *C 0 0
*53 I *C 0 0
*54 I *C 0 0
*55 I *C 0 0
*56 I *C 0 0
*57 I *C 0 0
*58 I *C 0 0
*59 I *C 0 0
*60 I *C 0 0
*61 I *C 0 0
*62 I *C 0 0
*63 I *C 0 0
*64 I *C 0 0
*65 I *C 0 0
*66 I *C 0 0
*77 I *C 0 0
*67 O *C 0 0
*68 O *C 0 0
*69 O *C 0 0
*70 O *C 0 0
*71 O *C 0 0
*72 O *C 0 0
*73 O *C 0 0
*74 O *C 0 0
*901 O *C 0 0
*78 O *C 0 0


*D_NET *1 0.00530125

*CONN
*I *1334:A2 I *C 9.63 45.115 *L 0.00167 *D NOR4_X1
*I *1323:A2 I *C 7.92 45.115 *L 0.00165 *D NOR2_X1
*I *1322:A2 I *C 6.21 43.365 *L 0.00165 *D NOR2_X1
*I *1321:A2 I *C 10.96 42.315 *L 0.00165 *D NOR2_X1
*I *1320:A2 I *C 7.28 36.715 *L 0.00165 *D NOR2_X1
*I *1117:A2 I *C 6.33 23.765 *L 0.00167 *D NOR4_X1
*I *1105:A2 I *C 7.85 23.765 *L 0.00165 *D NOR2_X1
*I *1104:A2 I *C 10.51 20.965 *L 0.00165 *D NOR2_X1
*I *1103:A2 I *C 11.84 12.565 *L 0.00165 *D NOR2_X1
*I *1102:A2 I *C 12.98 9.765 *L 0.00165 *D NOR2_X1
*I *903:ZN O *C 14.59 26.19 *L 0 *D INV_X1

*CAP
1 *1334:A2 1.662e-05
2 *1323:A2 1.662e-05
3 *1322:A2 7.17e-06
4 *1321:A2 7.4e-06
5 *1320:A2 1.478e-05
6 *1117:A2 1.662e-05
7 *1105:A2 4.143e-05
8 *1104:A2 0.00012303
9 *1103:A2 7.4e-06
10 *1102:A2 2.628e-05
11 *903:ZN 3.876e-05
12 *1:11 6.583e-05
13 *1:12 0.00016406
14 *1:13 0.00010813
15 *1:14 0.00010843
16 *1:15 0.00010843
17 *1:16 3.489e-05
18 *1:17 3.461e-05
19 *1:18 9.682e-05
20 *1:19 9.682e-05