*SPEF "IEEE 1481-1998"
*DESIGN "iir_filter"
*DATE "Mon Nov 15 18:14:41 2021"
*VENDOR "Cadence Design Systems, Inc."
*PROGRAM "Innovus"
*VERSION "17.11-s080_1"
*DESIGN_FLOW "COUPLING C" "PIN_CAP NONE" "NAME_SCOPE LOCAL"
*DIVIDER /
*DELIMITER :
*BUS_DELIMITER []
*T_UNIT 1 NS
*C_UNIT 1 PF
*R_UNIT 1 OHM
*L_UNIT 1 HENRY

// MMMC spef file for corner 'my_rc'

*NAME_MAP

*1 FE_OFN4_vin
*2 FE_OFN3_vin
*3 FE_OFN2_vin
*4 FE_OFN1_rst_n
*5 FE_OFN0_rst_n
*6 FE_DBTN5_q_reg4_0
*7 FE_DBTN4_q_reg4_1
*8 FE_DBTN3_q_reg4_2
*9 FE_DBTN2_q_reg4_3
*10 FE_DBTN1_q_reg4_4
*11 FE_DBTN0_q_reg4_5
*12 din[8]
*13 din[7]
*14 din[6]
*15 din[5]
*16 din[4]
*17 din[3]
*18 din[2]
*19 din[1]
*20 din[0]
*21 a1[8]
*22 a1[7]
*23 a1[6]
*24 a1[5]
*25 a1[4]
*26 a1[3]
*27 a1[2]
*28 a1[1]
*29 a1[0]
*30 c2[8]
*31 c2[7]
*32 c2[6]
*33 c2[5]
*34 c2[4]
*35 c2[3]
*36 c2[2]
*37 c2[1]
*38 c2[0]
*39 c3[8]
*40 c3[7]
*41 c3[6]
*42 c3[5]
*43 c3[4]
*44 c3[3]
*45 c3[2]
*46 c3[1]
*47 c3[0]
*48 b0[8]
*49 b0[7]
*50 b0[6]
*51 b0[5]
*52 b0[4]
*53 b0[3]
*54 b0[2]
*55 b0[1]
*56 b0[0]
*57 b1[8]
*58 b1[7]
*59 b1[6]
*60 b1[5]
*61 b1[4]
*62 b1[3]
*63 b1[2]
*64 b1[1]
*65 b1[0]
*66 b2[8]
*67 b2[7]
*68 b2[6]
*69 b2[5]
*70 b2[4]
*71 b2[3]
*72 b2[2]
*73 b2[1]
*74 b2[0]
*75 dout[8]
*76 dout[7]
*77 dout[6]
*78 dout[5]
*79 dout[4]
*80 dout[3]
*81 dout[2]
*82 dout[1]
*83 clock
*84 rst_n
*85 vin
*86 vout
*87 vout_ff1
*88 vout_ff2
*89 vout_ff3
*90 N9
*91 N8
*92 N7
*93 N14
*94 N13
*95 N12
*96 N11
*97 N10
*98 N6
*99 N5
*100 N4
*101 N3
*102 N2
*103 N1
*104 N0
*105 reg_1_n21
*106 reg_1_n20
*107 reg_1_n19
*108 reg_1_n18
*109 reg_1_n17
*110 reg_1_n16
*111 reg_1_n15
*112 reg_1_n14
*113 reg_1_n13
*114 reg_1_n12
*115 reg_1_n11
*116 reg_1_n10
*117 reg_1_n9
*118 reg_1_n8
*119 reg_1_n7
*120 reg_1_n6
*121 reg_1_n5
*122 reg_1_n4
*123 reg_1_n3
*124 reg_1_n2
*125 reg_1_n1
*126 reg_2_n44
*127 reg_2_n43
*128 reg_2_n42
*129 reg_2_n41
*130 reg_2_n40
*131 reg_2_n39
*132 reg_2_n38
*133 reg_2_n37
*134 reg_2_n36
*135 reg_2_n35
*136 reg_2_n34
*137 reg_2_n33
*138 reg_2_n32
*139 reg_2_n31
*140 reg_2_n30
*141 reg_2_n29
*142 reg_2_n28
*143 reg_2_n27
*144 reg_2_n26
*145 reg_2_n25
*146 reg_2_n24
*147 reg_3_n44
*148 reg_3_n43
*149 reg_3_n42
*150 reg_3_n41
*151 reg_3_n40
*152 reg_3_n39
*153 reg_3_n38
*154 reg_3_n37
*155 reg_3_n36
*156 reg_3_n35
*157 reg_3_n34
*158 reg_3_n33
*159 reg_3_n32
*160 reg_3_n31
*161 reg_3_n30
*162 reg_3_n29
*163 reg_3_n28
*164 reg_3_n27
*165 reg_3_n26
*166 reg_3_n25
*167 reg_3_n24
*168 reg_4_n44
*169 reg_4_n43
*170 reg_4_n42
*171 reg_4_n41
*172 reg_4_n40
*173 reg_4_n39
*174 reg_4_n38
*175 reg_4_n37
*176 reg_4_n36
*177 reg_4_n35
*178 reg_4_n34
*179 reg_4_n33
*180 reg_4_n32
*181 reg_4_n31
*182 reg_4_n30
*183 reg_4_n29
*184 reg_4_n28
*185 reg_4_n27
*186 reg_4_n26
*187 reg_4_n25
*188 reg_4_n24
*189 reg_5_n44
*190 reg_5_n43
*191 reg_5_n42
*192 reg_5_n41
*193 reg_5_n40
*194 reg_5_n39
*195 reg_5_n38
*196 reg_5_n37
*197 reg_5_n36
*198 reg_5_n35
*199 reg_5_n34
*200 reg_5_n33
*201 reg_5_n32
*202 reg_5_n31
*203 reg_5_n30
*204 reg_5_n29
*205 reg_5_n28
*206 reg_5_n27
*207 reg_5_n26
*208 reg_5_n25
*209 reg_5_n24
*210 reg_6_n44
*211 reg_6_n43
*212 reg_6_n42
*213 reg_6_n41
*214 reg_6_n40
*215 reg_6_n39
*216 reg_6_n38
*217 reg_6_n37
*218 reg_6_n36
*219 reg_6_n35
*220 reg_6_n34
*221 reg_6_n33
*222 reg_6_n32
*223 reg_6_n31
*224 reg_6_n30
*225 reg_6_n29
*226 reg_6_n28
*227 reg_6_n27
*228 reg_6_n26
*229 reg_6_n25
*230 reg_6_n24
*231 reg_7_n44
*232 reg_7_n43
*233 reg_7_n42
*234 reg_7_n41
*235 reg_7_n40
*236 reg_7_n39
*237 reg_7_n38
*238 reg_7_n37
*239 reg_7_n36
*240 reg_7_n35
*241 reg_7_n34
*242 reg_7_n33
*243 reg_7_n32
*244 reg_7_n31
*245 reg_7_n30
*246 reg_7_n29
*247 reg_7_n28
*248 reg_7_n27
*249 reg_7_n26
*250 reg_7_n25
*251 reg_7_n24
*252 reg_8_n44
*253 reg_8_n43
*254 reg_8_n42
*255 reg_8_n41
*256 reg_8_n40
*257 reg_8_n39
*258 reg_8_n38
*259 reg_8_n37
*260 reg_8_n36
*261 reg_8_n35
*262 reg_8_n34
*263 reg_8_n33
*264 reg_8_n32
*265 reg_8_n31
*266 reg_8_n30
*267 reg_8_n29
*268 reg_8_n28
*269 reg_8_n27
*270 reg_8_n26
*271 reg_8_n25
*272 reg_8_n24
*273 reg_9_n24
*274 reg_9_n23
*275 reg_9_n22
*276 reg_9_n21
*277 reg_9_n20
*278 reg_9_n19
*279 reg_9_n18
*280 reg_9_n17
*281 reg_9_n16
*282 reg_9_n15
*283 reg_9_n14
*284 reg_9_n13
*285 reg_9_n12
*286 reg_9_n11
*287 reg_9_n10
*288 reg_9_n9
*289 reg_9_n8
*290 reg_9_n7
*291 reg_9_n6
*292 reg_9_n5
*293 reg_9_n4
*294 reg_9_n3
*295 reg_9_n2
*296 reg_9_n1
*297 reg_10_n50
*298 reg_10_n49
*299 reg_10_n48
*300 reg_10_n47
*301 reg_10_n46
*302 reg_10_n45
*303 reg_10_n44
*304 reg_10_n43
*305 reg_10_n42
*306 reg_10_n41
*307 reg_10_n40
*308 reg_10_n39
*309 reg_10_n38
*310 reg_10_n37
*311 reg_10_n36
*312 reg_10_n35
*313 reg_10_n34
*314 reg_10_n33
*315 reg_10_n32
*316 reg_10_n31
*317 reg_10_n30
*318 reg_10_n29
*319 reg_10_n28
*320 reg_10_n27
*321 reg_11_n50
*322 reg_11_n49
*323 reg_11_n48
*324 reg_11_n47
*325 reg_11_n46
*326 reg_11_n45
*327 reg_11_n44
*328 reg_11_n43
*329 reg_11_n42
*330 reg_11_n41
*331 reg_11_n40
*332 reg_11_n39
*333 reg_11_n38
*334 reg_11_n37
*335 reg_11_n36
*336 reg_11_n35
*337 reg_11_n34
*338 reg_11_n33
*339 reg_11_n32
*340 reg_11_n31
*341 reg_11_n30
*342 reg_11_n29
*343 reg_11_n28
*344 reg_11_n27
*345 reg_12_n44
*346 reg_12_n43
*347 reg_12_n42
*348 reg_12_n41
*349 reg_12_n40
*350 reg_12_n39
*351 reg_12_n38
*352 reg_12_n37
*353 reg_12_n36
*354 reg_12_n35
*355 reg_12_n34
*356 reg_12_n33
*357 reg_12_n32
*358 reg_12_n31
*359 reg_12_n30
*360 reg_12_n29
*361 reg_12_n28
*362 reg_12_n27
*363 reg_12_n26
*364 reg_12_n25
*365 reg_12_n24
*366 reg_13_n44
*367 reg_13_n43
*368 reg_13_n42
*369 reg_13_n41
*370 reg_13_n40
*371 reg_13_n39
*372 reg_13_n38
*373 reg_13_n37
*374 reg_13_n36
*375 reg_13_n35
*376 reg_13_n34
*377 reg_13_n33
*378 reg_13_n32
*379 reg_13_n31
*380 reg_13_n30
*381 reg_13_n29
*382 reg_13_n28
*383 reg_13_n27
*384 reg_13_n26
*385 reg_13_n25
*386 reg_13_n24
*387 ff_1_n3
*388 ff_1_n2
*389 ff_1_n1
*390 ff_2_n5
*391 ff_3_n5
*392 ff_4_n5
*393 reg_dout_n50
*394 reg_dout_n49
*395 reg_dout_n48
*396 reg_dout_n47
*397 reg_dout_n46
*398 reg_dout_n45
*399 reg_dout_n44
*400 reg_dout_n43
*401 reg_dout_n42
*402 reg_dout_n41
*403 reg_dout_n40
*404 reg_dout_n39
*405 reg_dout_n38
*406 reg_dout_n37
*407 reg_dout_n36
*408 reg_dout_n35
*409 reg_dout_n34
*410 reg_dout_n33
*411 reg_dout_n32
*412 reg_dout_n31
*413 reg_dout_n30
*414 reg_dout_n29
*415 reg_dout_n28
*416 reg_dout_n27
*417 add_52_n2
*418 add_1_root_add_0_root_add_58_2_n1
*419 add_0_root_add_0_root_add_58_2_n2
*420 mult_57_n184
*421 mult_57_n183
*422 mult_57_n182
*423 mult_57_n181
*424 mult_57_n180
*425 mult_57_n179
*426 mult_57_n178
*427 mult_57_n177
*428 mult_57_n176
*429 mult_57_n175
*430 mult_57_n174
*431 mult_57_n173
*432 mult_57_n172
*433 mult_57_n171
*434 mult_57_n170
*435 mult_57_n169
*436 mult_57_n168
*437 mult_57_n167
*438 mult_57_n166
*439 mult_57_n165
*440 mult_57_n164
*441 mult_57_n163
*442 mult_57_n162
*443 mult_57_n119
*444 mult_57_n118
*445 mult_57_n117
*446 mult_57_n116
*447 mult_57_n115
*448 mult_57_n113
*449 mult_57_n112
*450 mult_57_n111
*451 mult_57_n110
*452 mult_57_n109
*453 mult_57_n108
*454 mult_57_n106
*455 mult_57_n105
*456 mult_57_n104
*457 mult_57_n103
*458 mult_57_n102
*459 mult_57_n101
*460 mult_57_n100
*461 mult_57_n99
*462 mult_57_n98
*463 mult_57_n97
*464 mult_57_n95
*465 mult_57_n94
*466 mult_57_n93
*467 mult_57_n92
*468 mult_57_n91
*469 mult_57_n90
*470 mult_57_n89
*471 mult_57_n88
*472 mult_57_n87
*473 mult_57_n86
*474 mult_57_n85
*475 mult_57_n83
*476 mult_57_n82
*477 mult_57_n81
*478 mult_57_n80
*479 mult_57_n79
*480 mult_57_n78
*481 mult_57_n77
*482 mult_57_n76
*483 mult_57_n75
*484 mult_57_n74
*485 mult_57_n73
*486 mult_57_n72
*487 mult_57_n71
*488 mult_57_n70
*489 mult_57_n69
*490 mult_57_n68
*491 mult_57_n67
*492 mult_57_n66
*493 mult_57_n65
*494 mult_57_n64
*495 mult_57_n63
*496 mult_57_n62
*497 mult_57_n61
*498 mult_57_n60
*499 mult_57_n59
*500 mult_57_n58
*501 mult_57_n57
*502 mult_57_n56
*503 mult_57_n55
*504 mult_57_n54
*505 mult_57_n53
*506 mult_57_n52
*507 mult_57_n51
*508 mult_57_n50
*509 mult_57_n49
*510 mult_57_n48
*511 mult_57_n47
*512 mult_57_n46
*513 mult_57_n45
*514 mult_57_n44
*515 mult_57_n43
*516 mult_57_n42
*517 mult_57_n41
*518 mult_57_n40
*519 mult_57_n39
*520 mult_57_n38
*521 mult_57_n37
*522 mult_57_n36
*523 mult_57_n35
*524 mult_57_n34
*525 mult_57_n33
*526 mult_57_n32
*527 mult_57_n31
*528 mult_57_n30
*529 mult_57_n29
*530 mult_57_n28
*531 mult_57_n27
*532 mult_57_n26
*533 mult_57_n25
*534 mult_57_n24
*535 mult_57_n23
*536 mult_57_n22
*537 mult_57_n21
*538 mult_57_n20
*539 mult_57_n19
*540 mult_57_n18
*541 mult_57_n17
*542 mult_57_n16
*543 mult_57_n15
*544 mult_57_n14
*545 mult_57_n13
*546 mult_57_n8
*547 mult_57_n7
*548 mult_57_n6
*549 mult_57_n5
*550 mult_57_n4
*551 mult_57_n3
*552 mult_57_n2
*553 mult_57_n1
*554 mult_56_n184
*555 mult_56_n183
*556 mult_56_n182
*557 mult_56_n181
*558 mult_56_n180
*559 mult_56_n179
*560 mult_56_n178
*561 mult_56_n177
*562 mult_56_n176
*563 mult_56_n175
*564 mult_56_n174
*565 mult_56_n173
*566 mult_56_n172
*567 mult_56_n171
*568 mult_56_n170
*569 mult_56_n169
*570 mult_56_n168
*571 mult_56_n167
*572 mult_56_n166
*573 mult_56_n165
*574 mult_56_n164
*575 mult_56_n163
*576 mult_56_n162
*577 mult_56_n119
*578 mult_56_n118
*579 mult_56_n117
*580 mult_56_n116
*581 mult_56_n115
*582 mult_56_n113
*583 mult_56_n112
*584 mult_56_n111
*585 mult_56_n110
*586 mult_56_n109
*587 mult_56_n108
*588 mult_56_n106
*589 mult_56_n105
*590 mult_56_n104
*591 mult_56_n103
*592 mult_56_n102
*593 mult_56_n101
*594 mult_56_n100
*595 mult_56_n99
*596 mult_56_n98
*597 mult_56_n97
*598 mult_56_n95
*599 mult_56_n94
*600 mult_56_n93
*601 mult_56_n92
*602 mult_56_n91
*603 mult_56_n90
*604 mult_56_n89
*605 mult_56_n88
*606 mult_56_n87
*607 mult_56_n86
*608 mult_56_n85
*609 mult_56_n83
*610 mult_56_n82
*611 mult_56_n81
*612 mult_56_n80
*613 mult_56_n79
*614 mult_56_n78
*615 mult_56_n77
*616 mult_56_n76
*617 mult_56_n75
*618 mult_56_n74
*619 mult_56_n73
*620 mult_56_n72
*621 mult_56_n71
*622 mult_56_n70
*623 mult_56_n69
*624 mult_56_n68
*625 mult_56_n67
*626 mult_56_n66
*627 mult_56_n65
*628 mult_56_n64
*629 mult_56_n63
*630 mult_56_n62
*631 mult_56_n61
*632 mult_56_n60
*633 mult_56_n59
*634 mult_56_n58
*635 mult_56_n57
*636 mult_56_n56
*637 mult_56_n55
*638 mult_56_n54
*639 mult_56_n53
*640 mult_56_n52
*641 mult_56_n51
*642 mult_56_n50
*643 mult_56_n49
*644 mult_56_n48
*645 mult_56_n47
*646 mult_56_n46
*647 mult_56_n45
*648 mult_56_n44
*649 mult_56_n43
*650 mult_56_n42
*651 mult_56_n41
*652 mult_56_n40
*653 mult_56_n39
*654 mult_56_n38
*655 mult_56_n37
*656 mult_56_n36
*657 mult_56_n35
*658 mult_56_n34
*659 mult_56_n33
*660 mult_56_n32
*661 mult_56_n31
*662 mult_56_n30
*663 mult_56_n29
*664 mult_56_n28
*665 mult_56_n27
*666 mult_56_n26
*667 mult_56_n25
*668 mult_56_n24
*669 mult_56_n23
*670 mult_56_n22
*671 mult_56_n21
*672 mult_56_n20
*673 mult_56_n19
*674 mult_56_n18
*675 mult_56_n17
*676 mult_56_n16
*677 mult_56_n15
*678 mult_56_n14
*679 mult_56_n13
*680 mult_56_n8
*681 mult_56_n7
*682 mult_56_n6
*683 mult_56_n5
*684 mult_56_n4
*685 mult_56_n3
*686 mult_56_n2
*687 mult_56_n1
*688 mult_55_n184
*689 mult_55_n183
*690 mult_55_n182
*691 mult_55_n181
*692 mult_55_n180
*693 mult_55_n179
*694 mult_55_n178
*695 mult_55_n177
*696 mult_55_n176
*697 mult_55_n175
*698 mult_55_n174
*699 mult_55_n173
*700 mult_55_n172
*701 mult_55_n171
*702 mult_55_n170
*703 mult_55_n169
*704 mult_55_n168
*705 mult_55_n167
*706 mult_55_n166
*707 mult_55_n165
*708 mult_55_n164
*709 mult_55_n163
*710 mult_55_n162
*711 mult_55_n119
*712 mult_55_n118
*713 mult_55_n117
*714 mult_55_n116
*715 mult_55_n115
*716 mult_55_n113
*717 mult_55_n112
*718 mult_55_n111
*719 mult_55_n110
*720 mult_55_n109
*721 mult_55_n108
*722 mult_55_n106
*723 mult_55_n105
*724 mult_55_n104
*725 mult_55_n103
*726 mult_55_n102
*727 mult_55_n101
*728 mult_55_n100
*729 mult_55_n99
*730 mult_55_n98
*731 mult_55_n97
*732 mult_55_n95
*733 mult_55_n94
*734 mult_55_n93
*735 mult_55_n92
*736 mult_55_n91
*737 mult_55_n90
*738 mult_55_n89
*739 mult_55_n88
*740 mult_55_n87
*741 mult_55_n86
*742 mult_55_n85
*743 mult_55_n83
*744 mult_55_n82
*745 mult_55_n81
*746 mult_55_n80
*747 mult_55_n79
*748 mult_55_n78
*749 mult_55_n77
*750 mult_55_n76
*751 mult_55_n75
*752 mult_55_n74
*753 mult_55_n73
*754 mult_55_n72
*755 mult_55_n71
*756 mult_55_n70
*757 mult_55_n69
*758 mult_55_n68
*759 mult_55_n67
*760 mult_55_n66
*761 mult_55_n65
*762 mult_55_n64
*763 mult_55_n63
*764 mult_55_n62
*765 mult_55_n61
*766 mult_55_n60
*767 mult_55_n59
*768 mult_55_n58
*769 mult_55_n57
*770 mult_55_n56
*771 mult_55_n55
*772 mult_55_n54
*773 mult_55_n53
*774 mult_55_n52
*775 mult_55_n51
*776 mult_55_n50
*777 mult_55_n49
*778 mult_55_n48
*779 mult_55_n47
*780 mult_55_n46
*781 mult_55_n45
*782 mult_55_n44
*783 mult_55_n43
*784 mult_55_n42
*785 mult_55_n41
*786 mult_55_n40
*787 mult_55_n39
*788 mult_55_n38
*789 mult_55_n37
*790 mult_55_n36
*791 mult_55_n35
*792 mult_55_n34
*793 mult_55_n33
*794 mult_55_n32
*795 mult_55_n31
*796 mult_55_n30
*797 mult_55_n29
*798 mult_55_n28
*799 mult_55_n27
*800 mult_55_n26
*801 mult_55_n25
*802 mult_55_n24
*803 mult_55_n23
*804 mult_55_n22
*805 mult_55_n21
*806 mult_55_n20
*807 mult_55_n19
*808 mult_55_n18
*809 mult_55_n17
*810 mult_55_n16
*811 mult_55_n15
*812 mult_55_n14
*813 mult_55_n13
*814 mult_55_n8
*815 mult_55_n7
*816 mult_55_n6
*817 mult_55_n5
*818 mult_55_n4
*819 mult_55_n3
*820 mult_55_n2
*821 mult_55_n1
*822 add_1_root_add_0_root_add_53_2_n1
*823 add_0_root_add_0_root_add_53_2_n1
*824 mult_50_n184
*825 mult_50_n183
*826 mult_50_n182
*827 mult_50_n181
*828 mult_50_n180
*829 mult_50_n179
*830 mult_50_n178
*831 mult_50_n177
*832 mult_50_n176
*833 mult_50_n175
*834 mult_50_n174
*835 mult_50_n173
*836 mult_50_n172
*837 mult_50_n171
*838 mult_50_n170
*839 mult_50_n167
*840 mult_50_n164
*841 mult_50_n162
*842 mult_50_n160
*843 mult_50_n119
*844 mult_50_n118
*845 mult_50_n117
*846 mult_50_n116
*847 mult_50_n115
*848 mult_50_n113
*849 mult_50_n112
*850 mult_50_n111
*851 mult_50_n110
*852 mult_50_n109
*853 mult_50_n108
*854 mult_50_n106
*855 mult_50_n105
*856 mult_50_n104
*857 mult_50_n103
*858 mult_50_n102
*859 mult_50_n101
*860 mult_50_n100
*861 mult_50_n99
*862 mult_50_n98
*863 mult_50_n97
*864 mult_50_n95
*865 mult_50_n94
*866 mult_50_n93
*867 mult_50_n92
*868 mult_50_n91
*869 mult_50_n90
*870 mult_50_n89
*871 mult_50_n88
*872 mult_50_n87
*873 mult_50_n86
*874 mult_50_n85
*875 mult_50_n83
*876 mult_50_n82
*877 mult_50_n81
*878 mult_50_n80
*879 mult_50_n79
*880 mult_50_n78
*881 mult_50_n77
*882 mult_50_n76
*883 mult_50_n75
*884 mult_50_n74
*885 mult_50_n72
*886 mult_50_n71
*887 mult_50_n70
*888 mult_50_n69
*889 mult_50_n68
*890 mult_50_n67
*891 mult_50_n66
*892 mult_50_n65
*893 mult_50_n64
*894 mult_50_n63
*895 mult_50_n62
*896 mult_50_n61
*897 mult_50_n60
*898 mult_50_n59
*899 mult_50_n58
*900 mult_50_n57
*901 mult_50_n56
*902 mult_50_n55
*903 mult_50_n54
*904 mult_50_n53
*905 mult_50_n52
*906 mult_50_n51
*907 mult_50_n50
*908 mult_50_n49
*909 mult_50_n48
*910 mult_50_n47
*911 mult_50_n46
*912 mult_50_n45
*913 mult_50_n44
*914 mult_50_n43
*915 mult_50_n42
*916 mult_50_n41
*917 mult_50_n40
*918 mult_50_n39
*919 mult_50_n38
*920 mult_50_n37
*921 mult_50_n36
*922 mult_50_n35
*923 mult_50_n34
*924 mult_50_n33
*925 mult_50_n32
*926 mult_50_n31
*927 mult_50_n30
*928 mult_50_n29
*929 mult_50_n28
*930 mult_50_n27
*931 mult_50_n26
*932 mult_50_n25
*933 mult_50_n24
*934 mult_50_n23
*935 mult_50_n22
*936 mult_50_n21
*937 mult_50_n20
*938 mult_50_n19
*939 mult_50_n18
*940 mult_50_n17
*941 mult_50_n16
*942 mult_50_n15
*943 mult_50_n14
*944 mult_50_n13
*945 mult_50_n8
*946 mult_50_n7
*947 mult_50_n6
*948 mult_50_n5
*949 mult_50_n4
*950 mult_50_n3
*951 mult_50_n2
*952 mult_51_n184
*953 mult_51_n183
*954 mult_51_n182
*955 mult_51_n181
*956 mult_51_n180
*957 mult_51_n179
*958 mult_51_n178
*959 mult_51_n177
*960 mult_51_n176
*961 mult_51_n175
*962 mult_51_n174
*963 mult_51_n173
*964 mult_51_n172
*965 mult_51_n171
*966 mult_51_n170
*967 mult_51_n167
*968 mult_51_n164
*969 mult_51_n162
*970 mult_51_n160
*971 mult_51_n119
*972 mult_51_n118
*973 mult_51_n117
*974 mult_51_n116
*975 mult_51_n115
*976 mult_51_n113
*977 mult_51_n112
*978 mult_51_n111
*979 mult_51_n110
*980 mult_51_n109
*981 mult_51_n108
*982 mult_51_n106
*983 mult_51_n105
*984 mult_51_n104
*985 mult_51_n103
*986 mult_51_n102
*987 mult_51_n101
*988 mult_51_n100
*989 mult_51_n99
*990 mult_51_n98
*991 mult_51_n97
*992 mult_51_n95
*993 mult_51_n94
*994 mult_51_n93
*995 mult_51_n92
*996 mult_51_n91
*997 mult_51_n90
*998 mult_51_n89
*999 mult_51_n88
*1000 mult_51_n87
*1001 mult_51_n86
*1002 mult_51_n85
*1003 mult_51_n83
*1004 mult_51_n82
*1005 mult_51_n81
*1006 mult_51_n80
*1007 mult_51_n79
*1008 mult_51_n78
*1009 mult_51_n77
*1010 mult_51_n76
*1011 mult_51_n75
*1012 mult_51_n74
*1013 mult_51_n72
*1014 mult_51_n71
*1015 mult_51_n70
*1016 mult_51_n69
*1017 mult_51_n68
*1018 mult_51_n67
*1019 mult_51_n66
*1020 mult_51_n65
*1021 mult_51_n64
*1022 mult_51_n63
*1023 mult_51_n62
*1024 mult_51_n61
*1025 mult_51_n60
*1026 mult_51_n59
*1027 mult_51_n58
*1028 mult_51_n57
*1029 mult_51_n56
*1030 mult_51_n55
*1031 mult_51_n54
*1032 mult_51_n53
*1033 mult_51_n52
*1034 mult_51_n51
*1035 mult_51_n50
*1036 mult_51_n49
*1037 mult_51_n48
*1038 mult_51_n47
*1039 mult_51_n46
*1040 mult_51_n45
*1041 mult_51_n44
*1042 mult_51_n43
*1043 mult_51_n42
*1044 mult_51_n41
*1045 mult_51_n40
*1046 mult_51_n39
*1047 mult_51_n38
*1048 mult_51_n37
*1049 mult_51_n36
*1050 mult_51_n35
*1051 mult_51_n34
*1052 mult_51_n33
*1053 mult_51_n32
*1054 mult_51_n31
*1055 mult_51_n30
*1056 mult_51_n29
*1057 mult_51_n28
*1058 mult_51_n27
*1059 mult_51_n26
*1060 mult_51_n25
*1061 mult_51_n24
*1062 mult_51_n23
*1063 mult_51_n22
*1064 mult_51_n21
*1065 mult_51_n20
*1066 mult_51_n19
*1067 mult_51_n18
*1068 mult_51_n17
*1069 mult_51_n16
*1070 mult_51_n15
*1071 mult_51_n14
*1072 mult_51_n13
*1073 mult_51_n8
*1074 mult_51_n7
*1075 mult_51_n6
*1076 mult_51_n5
*1077 mult_51_n4
*1078 mult_51_n3
*1079 mult_51_n2
*1080 mult_49_n184
*1081 mult_49_n183
*1082 mult_49_n182
*1083 mult_49_n181
*1084 mult_49_n180
*1085 mult_49_n179
*1086 mult_49_n178
*1087 mult_49_n177
*1088 mult_49_n176
*1089 mult_49_n175
*1090 mult_49_n174
*1091 mult_49_n173
*1092 mult_49_n172
*1093 mult_49_n171
*1094 mult_49_n170
*1095 mult_49_n169
*1096 mult_49_n168
*1097 mult_49_n167
*1098 mult_49_n166
*1099 mult_49_n165
*1100 mult_49_n164
*1101 mult_49_n163
*1102 mult_49_n162
*1103 mult_49_n161
*1104 mult_49_n160
*1105 mult_49_n119
*1106 mult_49_n118
*1107 mult_49_n117
*1108 mult_49_n116
*1109 mult_49_n115
*1110 mult_49_n113
*1111 mult_49_n112
*1112 mult_49_n111
*1113 mult_49_n110
*1114 mult_49_n109
*1115 mult_49_n108
*1116 mult_49_n106
*1117 mult_49_n105
*1118 mult_49_n104
*1119 mult_49_n103
*1120 mult_49_n102
*1121 mult_49_n101
*1122 mult_49_n100
*1123 mult_49_n99
*1124 mult_49_n98
*1125 mult_49_n97
*1126 mult_49_n95
*1127 mult_49_n94
*1128 mult_49_n93
*1129 mult_49_n92
*1130 mult_49_n91
*1131 mult_49_n90
*1132 mult_49_n89
*1133 mult_49_n88
*1134 mult_49_n87
*1135 mult_49_n86
*1136 mult_49_n85
*1137 mult_49_n83
*1138 mult_49_n82
*1139 mult_49_n81
*1140 mult_49_n80
*1141 mult_49_n79
*1142 mult_49_n78
*1143 mult_49_n77
*1144 mult_49_n76
*1145 mult_49_n75
*1146 mult_49_n74
*1147 mult_49_n72
*1148 mult_49_n71
*1149 mult_49_n70
*1150 mult_49_n69
*1151 mult_49_n68
*1152 mult_49_n67
*1153 mult_49_n66
*1154 mult_49_n65
*1155 mult_49_n64
*1156 mult_49_n63
*1157 mult_49_n62
*1158 mult_49_n61
*1159 mult_49_n60
*1160 mult_49_n59
*1161 mult_49_n58
*1162 mult_49_n57
*1163 mult_49_n56
*1164 mult_49_n55
*1165 mult_49_n54
*1166 mult_49_n53
*1167 mult_49_n52
*1168 mult_49_n51
*1169 mult_49_n50
*1170 mult_49_n49
*1171 mult_49_n48
*1172 mult_49_n47
*1173 mult_49_n46
*1174 mult_49_n45
*1175 mult_49_n44
*1176 mult_49_n43
*1177 mult_49_n42
*1178 mult_49_n41
*1179 mult_49_n40
*1180 mult_49_n39
*1181 mult_49_n38
*1182 mult_49_n37
*1183 mult_49_n36
*1184 mult_49_n35
*1185 mult_49_n34
*1186 mult_49_n33
*1187 mult_49_n32
*1188 mult_49_n31
*1189 mult_49_n30
*1190 mult_49_n29
*1191 mult_49_n28
*1192 mult_49_n27
*1193 mult_49_n26
*1194 mult_49_n25
*1195 mult_49_n24
*1196 mult_49_n23
*1197 mult_49_n22
*1198 mult_49_n21
*1199 mult_49_n20
*1200 mult_49_n19
*1201 mult_49_n18
*1202 mult_49_n17
*1203 mult_49_n16
*1204 mult_49_n15
*1205 mult_49_n14
*1206 mult_49_n13
*1207 mult_49_n8
*1208 mult_49_n7
*1209 mult_49_n6
*1210 mult_49_n5
*1211 mult_49_n4
*1212 mult_49_n3
*1213 mult_49_n2
*1214 TMP_a1[12]
*1215 TMP_a1[11]
*1216 TMP_a1[10]
*1217 TMP_a1[9]
*1218 TMP_a1[8]
*1219 TMP_a1[7]
*1220 TMP_a1[6]
*1221 TMPq4_c3[12]
*1222 TMPq4_c3[11]
*1223 TMPq4_c3[10]
*1224 TMPq4_c3[9]
*1225 TMPq4_c3[8]
*1226 TMPq4_c3[7]
*1227 TMPq4_c3[6]
*1228 TMPq2_c2[12]
*1229 TMPq2_c2[11]
*1230 TMPq2_c2[10]
*1231 TMPq2_c2[9]
*1232 TMPq2_c2[8]
*1233 TMPq2_c2[7]
*1234 TMPq2_c2[6]
*1235 TMP_reg1[6]
*1236 TMP_reg1[5]
*1237 TMP_reg1[4]
*1238 TMP_reg1[3]
*1239 TMP_reg1[2]
*1240 TMP_reg1[1]
*1241 TMP_reg1[0]
*1242 TMPa[6]
*1243 TMPa[5]
*1244 TMPa[4]
*1245 TMPa[3]
*1246 TMPa[2]
*1247 TMPa[1]
*1248 TMPa[0]
*1249 TMPq8_b0[13]
*1250 TMPq8_b0[12]
*1251 TMPq8_b0[11]
*1252 TMPq8_b0[10]
*1253 TMPq8_b0[9]
*1254 TMPq8_b0[8]
*1255 TMPq8_b0[7]
*1256 TMPq8_b0[6]
*1257 TMPq7_b1[13]
*1258 TMPq7_b1[12]
*1259 TMPq7_b1[11]
*1260 TMPq7_b1[10]
*1261 TMPq7_b1[9]
*1262 TMPq7_b1[8]
*1263 TMPq7_b1[7]
*1264 TMPq7_b1[6]
*1265 TMPq5_b2[13]
*1266 TMPq5_b2[12]
*1267 TMPq5_b2[11]
*1268 TMPq5_b2[10]
*1269 TMPq5_b2[9]
*1270 TMPq5_b2[8]
*1271 TMPq5_b2[7]
*1272 TMPq5_b2[6]
*1273 TMPb[7]
*1274 TMPb[6]
*1275 TMPb[5]
*1276 TMPb[4]
*1277 TMPb[3]
*1278 TMPb[2]
*1279 TMPb[1]
*1280 TMPb[0]
*1281 q_reg1[6]
*1282 q_reg1[5]
*1283 q_reg1[4]
*1284 q_reg1[3]
*1285 q_reg1[2]
*1286 q_reg1[1]
*1287 q_reg1[0]
*1288 q_reg2[6]
*1289 q_reg2[5]
*1290 q_reg2[4]
*1291 q_reg2[3]
*1292 q_reg2[2]
*1293 q_reg2[1]
*1294 q_reg2[0]
*1295 q_reg3[6]
*1296 q_reg3[5]
*1297 q_reg3[4]
*1298 q_reg3[3]
*1299 q_reg3[2]
*1300 q_reg3[1]
*1301 q_reg3[0]
*1302 q_reg4[6]
*1303 q_reg4[5]
*1304 q_reg4[4]
*1305 q_reg4[3]
*1306 q_reg4[2]
*1307 q_reg4[1]
*1308 q_reg4[0]
*1309 q_reg6[6]
*1310 q_reg6[5]
*1311 q_reg6[4]
*1312 q_reg6[3]
*1313 q_reg6[2]
*1314 q_reg6[1]
*1315 q_reg6[0]
*1316 q_reg5[6]
*1317 q_reg5[5]
*1318 q_reg5[4]
*1319 q_reg5[3]
*1320 q_reg5[2]
*1321 q_reg5[1]
*1322 q_reg5[0]
*1323 q_reg7[6]
*1324 q_reg7[5]
*1325 q_reg7[4]
*1326 q_reg7[3]
*1327 q_reg7[2]
*1328 q_reg7[1]
*1329 q_reg7[0]
*1330 q_reg8[6]
*1331 q_reg8[5]
*1332 q_reg8[4]
*1333 q_reg8[3]
*1334 q_reg8[2]
*1335 q_reg8[1]
*1336 q_reg8[0]
*1337 q_reg9[7]
*1338 q_reg9[6]
*1339 q_reg9[5]
*1340 q_reg9[4]
*1341 q_reg9[3]
*1342 q_reg9[2]
*1343 q_reg9[1]
*1344 q_reg9[0]
*1345 q_reg10[7]
*1346 q_reg10[6]
*1347 q_reg10[5]
*1348 q_reg10[4]
*1349 q_reg10[3]
*1350 q_reg10[2]
*1351 q_reg10[1]
*1352 q_reg10[0]
*1353 q_reg11[7]
*1354 q_reg11[6]
*1355 q_reg11[5]
*1356 q_reg11[4]
*1357 q_reg11[3]
*1358 q_reg11[2]
*1359 q_reg11[1]
*1360 q_reg11[0]
*1361 q_reg12[6]
*1362 q_reg12[5]
*1363 q_reg12[4]
*1364 q_reg12[3]
*1365 q_reg12[2]
*1366 q_reg12[1]
*1367 q_reg12[0]
*1368 q_reg13[6]
*1369 q_reg13[5]
*1370 q_reg13[4]
*1371 q_reg13[3]
*1372 q_reg13[2]
*1373 q_reg13[1]
*1374 q_reg13[0]
*1375 add_52_carry[6]
*1376 add_52_carry[5]
*1377 add_52_carry[4]
*1378 add_52_carry[3]
*1379 add_52_carry[2]
*1380 add_1_root_add_0_root_add_58_2_carry[7]
*1381 add_1_root_add_0_root_add_58_2_carry[6]
*1382 add_1_root_add_0_root_add_58_2_carry[5]
*1383 add_1_root_add_0_root_add_58_2_carry[4]
*1384 add_1_root_add_0_root_add_58_2_carry[3]
*1385 add_1_root_add_0_root_add_58_2_carry[2]
*1386 add_0_root_add_0_root_add_58_2_carry[7]
*1387 add_0_root_add_0_root_add_58_2_carry[6]
*1388 add_0_root_add_0_root_add_58_2_carry[5]
*1389 add_0_root_add_0_root_add_58_2_carry[4]
*1390 add_0_root_add_0_root_add_58_2_carry[3]
*1391 add_0_root_add_0_root_add_58_2_carry[2]
*1392 add_1_root_add_0_root_add_53_2_carry[6]
*1393 add_1_root_add_0_root_add_53_2_carry[5]
*1394 add_1_root_add_0_root_add_53_2_carry[4]
*1395 add_1_root_add_0_root_add_53_2_carry[3]
*1396 add_1_root_add_0_root_add_53_2_carry[2]
*1397 add_0_root_add_0_root_add_53_2_carry[6]
*1398 add_0_root_add_0_root_add_53_2_carry[5]
*1399 add_0_root_add_0_root_add_53_2_carry[4]
*1400 add_0_root_add_0_root_add_53_2_carry[3]
*1401 add_0_root_add_0_root_add_53_2_carry[2]
*1402 dout[0]
*1403 FE_OFC4_vin
*1404 FE_OFC3_vin
*1405 FE_OFC2_vin
*1406 FE_OFC1_rst_n
*1407 FE_OFC0_rst_n
*1408 FE_RC_6_0
*1409 FE_DBTC5_q_reg4_0
*1410 FE_DBTC4_q_reg4_1
*1411 FE_DBTC3_q_reg4_2
*1412 FE_DBTC2_q_reg4_3
*1413 FE_DBTC1_q_reg4_4
*1414 FE_DBTC0_q_reg4_5
*1415 reg_1_U16
*1416 reg_1_U15
*1417 reg_1_U14
*1418 reg_1_U13
*1419 reg_1_U12
*1420 reg_1_U11
*1421 reg_1_U10
*1422 reg_1_U9
*1423 reg_1_U8
*1424 reg_1_U7
*1425 reg_1_U6
*1426 reg_1_U5
*1427 reg_1_U4
*1428 reg_1_U3
*1429 reg_1_Q_reg_0_
*1430 reg_1_Q_reg_1_
*1431 reg_1_Q_reg_2_
*1432 reg_1_Q_reg_3_
*1433 reg_1_Q_reg_4_
*1434 reg_1_Q_reg_5_
*1435 reg_1_Q_reg_6_
*1436 reg_2_U16
*1437 reg_2_U15
*1438 reg_2_U14
*1439 reg_2_U13
*1440 reg_2_U12
*1441 reg_2_U11
*1442 reg_2_U10
*1443 reg_2_U9
*1444 reg_2_U7
*1445 reg_2_U6
*1446 reg_2_U5
*1447 reg_2_U4
*1448 reg_2_U3
*1449 reg_2_U2
*1450 reg_2_Q_reg_0_
*1451 reg_2_Q_reg_1_
*1452 reg_2_Q_reg_2_
*1453 reg_2_Q_reg_3_
*1454 reg_2_Q_reg_4_
*1455 reg_2_Q_reg_5_
*1456 reg_2_Q_reg_6_
*1457 reg_3_U16
*1458 reg_3_U15
*1459 reg_3_U14
*1460 reg_3_U13
*1461 reg_3_U12
*1462 reg_3_U11
*1463 reg_3_U10
*1464 reg_3_U9
*1465 reg_3_U7
*1466 reg_3_U6
*1467 reg_3_U5
*1468 reg_3_U4
*1469 reg_3_U3
*1470 reg_3_U2
*1471 reg_3_Q_reg_0_
*1472 reg_3_Q_reg_1_
*1473 reg_3_Q_reg_2_
*1474 reg_3_Q_reg_3_
*1475 reg_3_Q_reg_4_
*1476 reg_3_Q_reg_5_
*1477 reg_3_Q_reg_6_
*1478 reg_4_U16
*1479 reg_4_U15
*1480 reg_4_U14
*1481 reg_4_U13
*1482 reg_4_U12
*1483 reg_4_U11
*1484 reg_4_U10
*1485 reg_4_U9
*1486 reg_4_U8
*1487 reg_4_U7
*1488 reg_4_U6
*1489 reg_4_U5
*1490 reg_4_U4
*1491 reg_4_U3
*1492 reg_4_Q_reg_0_
*1493 reg_4_Q_reg_1_
*1494 reg_4_Q_reg_2_
*1495 reg_4_Q_reg_3_
*1496 reg_4_Q_reg_4_
*1497 reg_4_Q_reg_5_
*1498 reg_4_Q_reg_6_
*1499 reg_5_U16
*1500 reg_5_U15
*1501 reg_5_U14
*1502 reg_5_U13
*1503 reg_5_U12
*1504 reg_5_U11
*1505 reg_5_U10
*1506 reg_5_U9
*1507 reg_5_U8
*1508 reg_5_U7
*1509 reg_5_U6
*1510 reg_5_U5
*1511 reg_5_U4
*1512 reg_5_U3
*1513 reg_5_Q_reg_0_
*1514 reg_5_Q_reg_1_
*1515 reg_5_Q_reg_2_
*1516 reg_5_Q_reg_3_
*1517 reg_5_Q_reg_4_
*1518 reg_5_Q_reg_5_
*1519 reg_5_Q_reg_6_
*1520 reg_6_U16
*1521 reg_6_U15
*1522 reg_6_U14
*1523 reg_6_U13
*1524 reg_6_U12
*1525 reg_6_U11
*1526 reg_6_U10
*1527 reg_6_U9
*1528 reg_6_U8
*1529 reg_6_U7
*1530 reg_6_U6
*1531 reg_6_U5
*1532 reg_6_U4
*1533 reg_6_U3
*1534 reg_6_Q_reg_0_
*1535 reg_6_Q_reg_1_
*1536 reg_6_Q_reg_2_
*1537 reg_6_Q_reg_3_
*1538 reg_6_Q_reg_4_
*1539 reg_6_Q_reg_5_
*1540 reg_6_Q_reg_6_
*1541 reg_7_U16
*1542 reg_7_U15
*1543 reg_7_U14
*1544 reg_7_U13
*1545 reg_7_U12
*1546 reg_7_U11
*1547 reg_7_U10
*1548 reg_7_U9
*1549 reg_7_U8
*1550 reg_7_U7
*1551 reg_7_U6
*1552 reg_7_U5
*1553 reg_7_U4
*1554 reg_7_U3
*1555 reg_7_Q_reg_0_
*1556 reg_7_Q_reg_1_
*1557 reg_7_Q_reg_2_
*1558 reg_7_Q_reg_3_
*1559 reg_7_Q_reg_4_
*1560 reg_7_Q_reg_5_
*1561 reg_7_Q_reg_6_
*1562 reg_8_U16
*1563 reg_8_U15
*1564 reg_8_U14
*1565 reg_8_U13
*1566 reg_8_U12
*1567 reg_8_U11
*1568 reg_8_U10
*1569 reg_8_U9
*1570 reg_8_U8
*1571 reg_8_U7
*1572 reg_8_U6
*1573 reg_8_U5
*1574 reg_8_U4
*1575 reg_8_U3
*1576 reg_8_Q_reg_0_
*1577 reg_8_Q_reg_1_
*1578 reg_8_Q_reg_2_
*1579 reg_8_Q_reg_3_
*1580 reg_8_Q_reg_4_
*1581 reg_8_Q_reg_5_
*1582 reg_8_Q_reg_6_
*1583 reg_9_U19
*1584 reg_9_U18
*1585 reg_9_U16
*1586 reg_9_U15
*1587 reg_9_U14
*1588 reg_9_U13
*1589 reg_9_U12
*1590 reg_9_U11
*1591 reg_9_U9
*1592 reg_9_U8
*1593 reg_9_U7
*1594 reg_9_U6
*1595 reg_9_U5
*1596 reg_9_U4
*1597 reg_9_U3
*1598 reg_9_U2
*1599 reg_9_Q_reg_0_
*1600 reg_9_Q_reg_1_
*1601 reg_9_Q_reg_2_
*1602 reg_9_Q_reg_3_
*1603 reg_9_Q_reg_4_
*1604 reg_9_Q_reg_5_
*1605 reg_9_Q_reg_6_
*1606 reg_9_Q_reg_7_
*1607 reg_10_U19
*1608 reg_10_U18
*1609 reg_10_U16
*1610 reg_10_U15
*1611 reg_10_U14
*1612 reg_10_U13
*1613 reg_10_U12
*1614 reg_10_U11
*1615 reg_10_U9
*1616 reg_10_U8
*1617 reg_10_U7
*1618 reg_10_U6
*1619 reg_10_U5
*1620 reg_10_U4
*1621 reg_10_U3
*1622 reg_10_U2
*1623 reg_10_Q_reg_0_
*1624 reg_10_Q_reg_1_
*1625 reg_10_Q_reg_2_
*1626 reg_10_Q_reg_3_
*1627 reg_10_Q_reg_4_
*1628 reg_10_Q_reg_5_
*1629 reg_10_Q_reg_6_
*1630 reg_10_Q_reg_7_
*1631 reg_11_U19
*1632 reg_11_U18
*1633 reg_11_U16
*1634 reg_11_U15
*1635 reg_11_U14
*1636 reg_11_U13
*1637 reg_11_U12
*1638 reg_11_U11
*1639 reg_11_U9
*1640 reg_11_U8
*1641 reg_11_U7
*1642 reg_11_U6
*1643 reg_11_U5
*1644 reg_11_U4
*1645 reg_11_U3
*1646 reg_11_U2
*1647 reg_11_Q_reg_0_
*1648 reg_11_Q_reg_1_
*1649 reg_11_Q_reg_2_
*1650 reg_11_Q_reg_3_
*1651 reg_11_Q_reg_4_
*1652 reg_11_Q_reg_5_
*1653 reg_11_Q_reg_6_
*1654 reg_11_Q_reg_7_
*1655 reg_12_U16
*1656 reg_12_U15
*1657 reg_12_U14
*1658 reg_12_U13
*1659 reg_12_U12
*1660 reg_12_U11
*1661 reg_12_U10
*1662 reg_12_U9
*1663 reg_12_U8
*1664 reg_12_U7
*1665 reg_12_U6
*1666 reg_12_U5
*1667 reg_12_U4
*1668 reg_12_U3
*1669 reg_12_Q_reg_0_
*1670 reg_12_Q_reg_1_
*1671 reg_12_Q_reg_2_
*1672 reg_12_Q_reg_3_
*1673 reg_12_Q_reg_4_
*1674 reg_12_Q_reg_5_
*1675 reg_12_Q_reg_6_
*1676 reg_13_U16
*1677 reg_13_U15
*1678 reg_13_U14
*1679 reg_13_U13
*1680 reg_13_U12
*1681 reg_13_U11
*1682 reg_13_U10
*1683 reg_13_U9
*1684 reg_13_U7
*1685 reg_13_U6
*1686 reg_13_U5
*1687 reg_13_U4
*1688 reg_13_U3
*1689 reg_13_U2
*1690 reg_13_Q_reg_0_
*1691 reg_13_Q_reg_1_
*1692 reg_13_Q_reg_2_
*1693 reg_13_Q_reg_3_
*1694 reg_13_Q_reg_4_
*1695 reg_13_Q_reg_5_
*1696 reg_13_Q_reg_6_
*1697 ff_1_U3
*1698 ff_1_Q_reg
*1699 ff_2_Q_reg
*1700 ff_3_Q_reg
*1701 ff_4_Q_reg
*1702 reg_dout_U19
*1703 reg_dout_U18
*1704 reg_dout_U17
*1705 reg_dout_U16
*1706 reg_dout_U15
*1707 reg_dout_U14
*1708 reg_dout_U12
*1709 reg_dout_U11
*1710 reg_dout_U10
*1711 reg_dout_U9
*1712 reg_dout_U8
*1713 reg_dout_U7
*1714 reg_dout_U6
*1715 reg_dout_U5
*1716 reg_dout_U4
*1717 reg_dout_U3
*1718 reg_dout_Q_reg_0_
*1719 reg_dout_Q_reg_1_
*1720 reg_dout_Q_reg_2_
*1721 reg_dout_Q_reg_3_
*1722 reg_dout_Q_reg_4_
*1723 reg_dout_Q_reg_5_
*1724 reg_dout_Q_reg_6_
*1725 reg_dout_Q_reg_7_
*1726 add_52_U2